101525
  -OEChem-07202400303D

 43 44  0     0  0  0  0  0  0999 V2000
    3.1432   -0.5206   -1.8131 S   0  0  0  0  0  0  0  0  0  0  0  0
   -2.4417    5.1108    0.0997 F   0  0  0  0  0  0  0  0  0  0  0  0
   -1.1505    3.5212    0.8311 F   0  0  0  0  0  0  0  0  0  0  0  0
   -6.0464   -3.3463    0.6759 F   0  0  0  0  0  0  0  0  0  0  0  0
   -4.6351   -2.9684   -0.9349 F   0  0  0  0  0  0  0  0  0  0  0  0
    3.1291    0.4763   -2.8734 O   0  0  0  0  0  0  0  0  0  0  0  0
    3.9350   -1.7313   -1.9698 O   0  0  0  0  0  0  0  0  0  0  0  0
    2.1203   -2.1052    1.2198 O   0  0  0  0  0  0  0  0  0  0  0  0
    4.2629   -2.7969    0.7403 O   0  0  0  0  0  0  0  0  0  0  0  0
    0.6685    1.1657   -1.0628 O   0  0  0  0  0  0  0  0  0  0  0  0
   -3.2773    3.0407    0.2267 O   0  0  0  0  0  0  0  0  0  0  0  0
   -5.1322   -1.3115    0.5235 O   0  0  0  0  0  0  0  0  0  0  0  0
    1.5293   -0.9596   -1.4419 N   0  0  0  0  0  0  0  0  0  0  0  0
   -0.6876   -0.7125   -0.7686 N   0  0  0  0  0  0  0  0  0  0  0  0
   -1.9794    1.1843   -0.2706 N   0  0  0  0  0  0  0  0  0  0  0  0
   -2.9223   -1.0282   -0.1199 N   0  0  0  0  0  0  0  0  0  0  0  0
    3.6497    0.2480   -0.3238 C   0  0  0  0  0  0  0  0  0  0  0  0
    3.7505   -0.4717    0.8669 C   0  0  0  0  0  0  0  0  0  0  0  0
    3.9558    1.6088   -0.3442 C   0  0  0  0  0  0  0  0  0  0  0  0
    4.1576    0.1694    2.0370 C   0  0  0  0  0  0  0  0  0  0  0  0
    4.3629    2.2498    0.8258 C   0  0  0  0  0  0  0  0  0  0  0  0
    4.4638    1.5302    2.0163 C   0  0  0  0  0  0  0  0  0  0  0  0
    3.4392   -1.8937    0.9277 C   0  0  0  0  0  0  0  0  0  0  0  0
    0.4848   -0.0454   -1.0794 C   0  0  0  0  0  0  0  0  0  0  0  0
   -1.9246   -0.1578   -0.3662 C   0  0  0  0  0  0  0  0  0  0  0  0
   -3.1736    1.6795    0.1153 C   0  0  0  0  0  0  0  0  0  0  0  0
   -4.0876   -0.4652    0.2614 C   0  0  0  0  0  0  0  0  0  0  0  0
   -4.2735    0.8955    0.3976 C   0  0  0  0  0  0  0  0  0  0  0  0
    1.6902   -3.4679    1.3087 C   0  0  0  0  0  0  0  0  0  0  0  0
   -2.1193    3.8031   -0.0743 C   0  0  0  0  0  0  0  0  0  0  0  0
   -4.8915   -2.7010    0.3691 C   0  0  0  0  0  0  0  0  0  0  0  0
    3.8869    2.1976   -1.2540 H   0  0  0  0  0  0  0  0  0  0  0  0
    1.3297   -1.9649   -1.3649 H   0  0  0  0  0  0  0  0  0  0  0  0
    4.2400   -0.3802    2.9712 H   0  0  0  0  0  0  0  0  0  0  0  0
    4.6010    3.3094    0.8103 H   0  0  0  0  0  0  0  0  0  0  0  0
    4.7805    2.0295    2.9273 H   0  0  0  0  0  0  0  0  0  0  0  0
   -0.6785   -1.7269   -0.8300 H   0  0  0  0  0  0  0  0  0  0  0  0
   -5.2206    1.3201    0.7057 H   0  0  0  0  0  0  0  0  0  0  0  0
    0.6177   -3.4724    1.5200 H   0  0  0  0  0  0  0  0  0  0  0  0
    2.2139   -3.9750    2.1243 H   0  0  0  0  0  0  0  0  0  0  0  0
    1.8638   -3.9815    0.3585 H   0  0  0  0  0  0  0  0  0  0  0  0
   -1.7572    3.6541   -1.0974 H   0  0  0  0  0  0  0  0  0  0  0  0
   -4.0881   -3.0750    1.0130 H   0  0  0  0  0  0  0  0  0  0  0  0
  1  6  2  0  0  0  0
  1  7  2  0  0  0  0
  1 13  1  0  0  0  0
  1 17  1  0  0  0  0
  2 30  1  0  0  0  0
  3 30  1  0  0  0  0
  4 31  1  0  0  0  0
  5 31  1  0  0  0  0
  8 23  1  0  0  0  0
  8 29  1  0  0  0  0
  9 23  2  0  0  0  0
 10 24  2  0  0  0  0
 11 26  1  0  0  0  0
 11 30  1  0  0  0  0
 12 27  1  0  0  0  0
 12 31  1  0  0  0  0
 13 24  1  0  0  0  0
 13 33  1  0  0  0  0
 14 24  1  0  0  0  0
 14 25  1  0  0  0  0
 14 37  1  0  0  0  0
 15 25  1  0  0  0  0
 15 26  2  0  0  0  0
 16 25  2  0  0  0  0
 16 27  1  0  0  0  0
 17 18  1  0  0  0  0
 17 19  2  0  0  0  0
 18 20  2  0  0  0  0
 18 23  1  0  0  0  0
 19 21  1  0  0  0  0
 19 32  1  0  0  0  0
 20 22  1  0  0  0  0
 20 34  1  0  0  0  0
 21 22  2  0  0  0  0
 21 35  1  0  0  0  0
 22 36  1  0  0  0  0
 26 28  1  0  0  0  0
 27 28  2  0  0  0  0
 28 38  1  0  0  0  0
 29 39  1  0  0  0  0
 29 40  1  0  0  0  0
 29 41  1  0  0  0  0
 30 42  1  0  0  0  0
 31 43  1  0  0  0  0
M  END
> <PUBCHEM_COMPOUND_CID>
101525

> <PUBCHEM_CONFORMER_RMSD>
1

> <PUBCHEM_CONFORMER_DIVERSEORDER>
1
30
54
33
44
28
42
57
32
52
41
50
24
51
47
39
46
23
7
49
25
40
17
36
16
13
19
14
37
43
45
35
29
53
26
48
11
38
34
27
8
18
31
15
20
55
22
56
9
4
2
21
5
12
10
6
3

> <PUBCHEM_MMFF94_PARTIAL_CHARGES>
38
1 1.45
10 -0.57
11 -0.36
12 -0.36
13 -0.79
14 -0.55
15 -0.62
16 -0.62
17 -0.01
18 0.09
19 -0.15
2 -0.34
20 -0.15
21 -0.15
22 -0.15
23 0.63
24 0.87
25 0.74
26 0.39
27 0.39
28 -0.15
29 0.28
3 -0.34
30 0.96
31 0.96
32 0.15
33 0.42
34 0.15
35 0.15
36 0.15
37 0.37
38 0.15
4 -0.34
5 -0.34
6 -0.65
7 -0.65
8 -0.43
9 -0.57

> <PUBCHEM_EFFECTIVE_ROTOR_COUNT>
11

> <PUBCHEM_PHARMACOPHORE_FEATURES>
9
1 10 acceptor
1 12 acceptor
1 13 donor
1 14 donor
1 6 acceptor
1 7 acceptor
1 9 acceptor
6 15 16 25 26 27 28 rings
6 17 18 19 20 21 22 rings

> <PUBCHEM_HEAVY_ATOM_COUNT>
31

> <PUBCHEM_ATOM_DEF_STEREO_COUNT>
0

> <PUBCHEM_ATOM_UDEF_STEREO_COUNT>
0

> <PUBCHEM_BOND_DEF_STEREO_COUNT>
0

> <PUBCHEM_BOND_UDEF_STEREO_COUNT>
0

> <PUBCHEM_ISOTOPIC_ATOM_COUNT>
0

> <PUBCHEM_COMPONENT_COUNT>
1

> <PUBCHEM_CACTVS_TAUTO_COUNT>
5

> <PUBCHEM_CONFORMER_ID>
00018C9500000001

> <PUBCHEM_MMFF94_ENERGY>
66.7456

> <PUBCHEM_FEATURE_SELFOVERLAP>
45.737

> <PUBCHEM_SHAPE_FINGERPRINT>
10319926 262 18269828740697265994
11552529 35 18263919956276784541
11595378 159 18341607135531935431
12107183 9 17614557043165736552
12342043 65 17559142932789584031
12788726 201 18262251034816685271
12892183 10 18411127035564120224
13583140 156 18264189340883686148
13692114 37 18052813655642027413
14178342 30 18334852779931462830
14394314 77 18337956796558552891
15927050 60 16897368114112516485
15961568 22 18268995456612347028
17349148 13 17385724707476617515
17492 89 18409445864994780922
19309040 13 13683758293464623520
19315092 285 17170080799162033984
21315764 371 18409734001254972666
23559900 14 18057332682137167478
3886686 26 17760921849164950987
392239 28 18409444829733310355
508706 21 18198904708340203829
5104073 3 18272375256597568091
6004065 56 18049153669148639819
6823239 73 18130516236665394332
7097593 13 17756421565325932410

> <PUBCHEM_SHAPE_MULTIPOLES>
551.71
12.4
4.77
1.78
8.43
2.73
0.65
-4.87
-3.02
4.94
-1.43
-3.05
-0.33
0.32

> <PUBCHEM_SHAPE_SELFOVERLAP>
1158.435

> <PUBCHEM_SHAPE_VOLUME>
311.3

> <PUBCHEM_COORDINATE_TYPE>
2
5
10

$$$$
