10255083
  -OEChem-07202400403D

 55 58  0     1  0  0  0  0  0999 V2000
    3.5733   -0.8713   -0.7630 O   0  0  0  0  0  0  0  0  0  0  0  0
    4.1158    1.8401    1.6503 O   0  0  0  0  0  0  0  0  0  0  0  0
    5.8967   -0.3017    2.5868 O   0  0  0  0  0  0  0  0  0  0  0  0
    6.9219   -1.8291    0.3684 O   0  0  0  0  0  0  0  0  0  0  0  0
    4.2615   -2.5269   -2.8438 O   0  0  0  0  0  0  0  0  0  0  0  0
    1.4081   -1.3853    0.1296 O   0  0  0  0  0  0  0  0  0  0  0  0
    2.6830    3.1323   -0.6073 O   0  0  0  0  0  0  0  0  0  0  0  0
    0.0879    3.9170   -0.6579 O   0  0  0  0  0  0  0  0  0  0  0  0
   -1.0719   -1.8869    0.2778 O   0  0  0  0  0  0  0  0  0  0  0  0
   -2.3854    3.2356   -0.4862 O   0  0  0  0  0  0  0  0  0  0  0  0
   -6.7739    0.8907   -0.0071 O   0  0  0  0  0  0  0  0  0  0  0  0
   -6.6167   -2.3662   -0.7804 O   0  0  0  0  0  0  0  0  0  0  0  0
   -6.7011   -2.1523    1.4809 O   0  0  0  0  0  0  0  0  0  0  0  0
    4.0736    0.4834    1.2084 C   0  0  1  0  0  0  0  0  0  0  0  0
    3.4895    0.4470   -0.2123 C   0  0  2  0  0  0  0  0  0  0  0  0
    5.4920   -0.0927    1.2325 C   0  0  2  0  0  0  0  0  0  0  0  0
    5.5588   -1.4367    0.5075 C   0  0  1  0  0  0  0  0  0  0  0  0
    4.9181   -1.3384   -0.8782 C   0  0  1  0  0  0  0  0  0  0  0  0
    2.0319    0.8639   -0.2366 C   0  0  0  0  0  0  0  0  0  0  0  0
    4.8743   -2.6929   -1.5781 C   0  0  0  0  0  0  0  0  0  0  0  0
    1.0274   -0.0883   -0.0611 C   0  0  0  0  0  0  0  0  0  0  0  0
    1.6992    2.2024   -0.4356 C   0  0  0  0  0  0  0  0  0  0  0  0
   -0.3173    0.3009   -0.0847 C   0  0  0  0  0  0  0  0  0  0  0  0
   -0.6508    1.6423   -0.2841 C   0  0  0  0  0  0  0  0  0  0  0  0
    0.3605    2.5945   -0.4599 C   0  0  0  0  0  0  0  0  0  0  0  0
   -1.3742   -0.7142    0.1013 C   0  0  0  0  0  0  0  0  0  0  0  0
   -2.7889   -0.2900    0.0726 C   0  0  0  0  0  0  0  0  0  0  0  0
   -2.0653    2.0665   -0.3121 C   0  0  0  0  0  0  0  0  0  0  0  0
   -3.1223    1.0512   -0.1269 C   0  0  0  0  0  0  0  0  0  0  0  0
   -3.8002   -1.2426    0.2462 C   0  0  0  0  0  0  0  0  0  0  0  0
   -4.4670    1.4401   -0.1523 C   0  0  0  0  0  0  0  0  0  0  0  0
   -5.1389   -0.8508    0.2203 C   0  0  0  0  0  0  0  0  0  0  0  0
   -5.4716    0.4877    0.0215 C   0  0  0  0  0  0  0  0  0  0  0  0
   -3.5207   -2.6995    0.4643 C   0  0  0  0  0  0  0  0  0  0  0  0
   -6.2073   -1.8301    0.3993 C   0  0  0  0  0  0  0  0  0  0  0  0
    4.0551    1.1124   -0.8781 H   0  0  0  0  0  0  0  0  0  0  0  0
    3.4429   -0.0676    1.9164 H   0  0  0  0  0  0  0  0  0  0  0  0
    6.2112    0.6143    0.8007 H   0  0  0  0  0  0  0  0  0  0  0  0
    5.0568   -2.2021    1.1118 H   0  0  0  0  0  0  0  0  0  0  0  0
    5.4745   -0.6430   -1.5214 H   0  0  0  0  0  0  0  0  0  0  0  0
    4.2796   -3.4173   -1.0117 H   0  0  0  0  0  0  0  0  0  0  0  0
    5.8767   -3.1026   -1.7317 H   0  0  0  0  0  0  0  0  0  0  0  0
    4.6753    2.3408    1.0324 H   0  0  0  0  0  0  0  0  0  0  0  0
    5.8243    0.5526    3.0458 H   0  0  0  0  0  0  0  0  0  0  0  0
    7.3730   -1.1607   -0.1752 H   0  0  0  0  0  0  0  0  0  0  0  0
    3.3734   -2.1597   -2.6947 H   0  0  0  0  0  0  0  0  0  0  0  0
    2.3154   -1.4401    0.4661 H   0  0  0  0  0  0  0  0  0  0  0  0
    2.2656    4.0025   -0.7302 H   0  0  0  0  0  0  0  0  0  0  0  0
   -4.7393    2.4814   -0.3067 H   0  0  0  0  0  0  0  0  0  0  0  0
   -0.8668    4.0798   -0.6528 H   0  0  0  0  0  0  0  0  0  0  0  0
   -2.9428   -2.8444    1.3835 H   0  0  0  0  0  0  0  0  0  0  0  0
   -4.4057   -3.3290    0.5861 H   0  0  0  0  0  0  0  0  0  0  0  0
   -2.9903   -3.1202   -0.3970 H   0  0  0  0  0  0  0  0  0  0  0  0
   -6.8080    1.8513   -0.1553 H   0  0  0  0  0  0  0  0  0  0  0  0
   -7.3338   -3.0236   -0.6537 H   0  0  0  0  0  0  0  0  0  0  0  0
  1 15  1  0  0  0  0
  1 18  1  0  0  0  0
  2 14  1  0  0  0  0
  2 43  1  0  0  0  0
  3 16  1  0  0  0  0
  3 44  1  0  0  0  0
  4 17  1  0  0  0  0
  4 45  1  0  0  0  0
  5 20  1  0  0  0  0
  5 46  1  0  0  0  0
  6 21  1  0  0  0  0
  6 47  1  0  0  0  0
  7 22  1  0  0  0  0
  7 48  1  0  0  0  0
  8 25  1  0  0  0  0
  8 50  1  0  0  0  0
  9 26  2  0  0  0  0
 10 28  2  0  0  0  0
 11 33  1  0  0  0  0
 11 54  1  0  0  0  0
 12 35  1  0  0  0  0
 12 55  1  0  0  0  0
 13 35  2  0  0  0  0
 14 15  1  0  0  0  0
 14 16  1  0  0  0  0
 14 37  1  0  0  0  0
 15 19  1  0  0  0  0
 15 36  1  0  0  0  0
 16 17  1  0  0  0  0
 16 38  1  0  0  0  0
 17 18  1  0  0  0  0
 17 39  1  0  0  0  0
 18 20  1  0  0  0  0
 18 40  1  0  0  0  0
 19 21  2  0  0  0  0
 19 22  1  0  0  0  0
 20 41  1  0  0  0  0
 20 42  1  0  0  0  0
 21 23  1  0  0  0  0
 22 25  2  0  0  0  0
 23 24  2  0  0  0  0
 23 26  1  0  0  0  0
 24 25  1  0  0  0  0
 24 28  1  0  0  0  0
 26 27  1  0  0  0  0
 27 29  1  0  0  0  0
 27 30  2  0  0  0  0
 28 29  1  0  0  0  0
 29 31  2  0  0  0  0
 30 32  1  0  0  0  0
 30 34  1  0  0  0  0
 31 33  1  0  0  0  0
 31 49  1  0  0  0  0
 32 33  2  0  0  0  0
 32 35  1  0  0  0  0
 34 51  1  0  0  0  0
 34 52  1  0  0  0  0
 34 53  1  0  0  0  0
M  END
> <PUBCHEM_COMPOUND_CID>
10255083

> <PUBCHEM_CONFORMER_RMSD>
0.8

> <PUBCHEM_CONFORMER_DIVERSEORDER>
1
3
5
2
4
6

> <PUBCHEM_MMFF94_PARTIAL_CHARGES>
45
1 -0.56
10 -0.57
11 -0.53
12 -0.65
13 -0.57
14 0.28
15 0.42
16 0.28
17 0.28
18 0.28
19 -0.14
2 -0.68
20 0.28
21 0.08
22 0.08
23 0.09
24 0.09
25 0.08
26 0.4
27 0.09
28 0.4
29 0.09
3 -0.68
30 -0.14
31 -0.15
32 0.09
33 0.08
34 0.14
35 0.63
4 -0.68
43 0.4
44 0.4
45 0.4
46 0.4
47 0.45
48 0.45
49 0.15
5 -0.68
50 0.45
54 0.45
55 0.5
6 -0.53
7 -0.53
8 -0.53
9 -0.57

> <PUBCHEM_EFFECTIVE_ROTOR_COUNT>
4.2

> <PUBCHEM_PHARMACOPHORE_FEATURES>
22
1 1 acceptor
1 10 acceptor
1 11 donor
1 12 acceptor
1 13 acceptor
1 2 acceptor
1 2 donor
1 3 acceptor
1 3 donor
1 4 acceptor
1 4 donor
1 5 acceptor
1 5 donor
1 6 donor
1 7 donor
1 8 donor
1 9 acceptor
3 12 13 35 anion
6 1 14 15 16 17 18 rings
6 19 21 22 23 24 25 rings
6 23 24 26 27 28 29 rings
6 27 29 30 31 32 33 rings

> <PUBCHEM_HEAVY_ATOM_COUNT>
35

> <PUBCHEM_ATOM_DEF_STEREO_COUNT>
5

> <PUBCHEM_ATOM_UDEF_STEREO_COUNT>
0

> <PUBCHEM_BOND_DEF_STEREO_COUNT>
0

> <PUBCHEM_BOND_UDEF_STEREO_COUNT>
0

> <PUBCHEM_ISOTOPIC_ATOM_COUNT>
0

> <PUBCHEM_COMPONENT_COUNT>
1

> <PUBCHEM_CACTVS_TAUTO_COUNT>
600

> <PUBCHEM_CONFORMER_ID>
009C7AEB00000001

> <PUBCHEM_MMFF94_ENERGY>
127.8824

> <PUBCHEM_FEATURE_SELFOVERLAP>
111.783

> <PUBCHEM_SHAPE_FINGERPRINT>
10050765 1 18334858320329544484
10411042 1 18407761447403629189
10721379 63 17313965133204698300
11135609 12 18410570695533881336
11607047 403 16405038659246625019
12166972 35 18342740753548049241
12236239 1 17458061560177160216
12342043 65 17772759278029434502
12422481 6 17917994966668237439
12623949 98 17846510201272580702
12633046 712 15864370033356578568
12645989 146 18339081596542668359
131258 43 17773624688370546780
13140716 1 18263921197385495001
13402501 40 18342175515015290678
13533116 47 17418099801966726510
13757389 114 16392970492065978532
13782708 43 18202562852097091518
13811026 1 18409160034704635755
13862211 1 18335418002281364219
14117953 113 18335698292269465189
14294032 229 17243578577365557005
14790565 3 17326341424359351116
15131766 46 15624784310891957384
15183329 4 18040714757942633491
15196674 1 18335986471526470613
15274700 259 16952789690212774805
15420108 30 17624122112150799768
15510800 12 17986396594872496478
15927050 60 17761779863756560332
17492 89 18119814865896336739
17909252 39 18126573319196523678
1813 80 17530682121533326836
18608769 82 18413106156984954830
1979834 28 18131633409230138390
20028762 73 18412542141283935047
21033648 29 17774420712427561472
21130935 74 18343582962501974475
21267235 1 18334019414995831203
21279426 13 18334293163384483333
21682296 61 18412552002902964199
21781051 124 17677071104514782827
21792934 111 18412545427819464529
22122407 14 16128655275321841771
23522609 53 18045253528815267333
23559900 14 18411136930836506365
23569914 152 11605860309587320529
24893992 56 18113618994274101385
3004659 81 18113343007421374940
3103668 31 17969779684216255749
335352 9 18335421249508859405
3383291 50 18188490285174709595
3411729 13 18189895504158570696
350125 39 18408041822763450925
3680242 22 18260265256951312753
3882209 13 17405958109483234654
4144715 1 18262808487876859819
4340502 62 15985108534868549062
5104073 3 18337958999518313833
563151 74 17059760235285080146
59755656 215 18263361404306759359
86090 222 17130732508188875926

> <PUBCHEM_SHAPE_MULTIPOLES>
643.98
16.97
3.62
1.33
4.3
1.5
0
-12.28
-3.35
0.45
1.09
-2.61
-0.7
2.11

> <PUBCHEM_SHAPE_SELFOVERLAP>
1440.731

> <PUBCHEM_SHAPE_VOLUME>
337.1

> <PUBCHEM_COORDINATE_TYPE>
2
5
10

$$$$
