10617
  -OEChem-07192423563D

 37 40  0     0  0  0  0  0  0999 V2000
   -3.5241   -2.3371    0.0098 O   0  0  0  0  0  0  0  0  0  0  0  0
   -7.2263    1.1037    0.0044 O   0  0  0  0  0  0  0  0  0  0  0  0
   -5.2950    2.3023   -0.0175 O   0  0  0  0  0  0  0  0  0  0  0  0
    2.8830    0.3804   -0.0003 C   0  0  0  0  0  0  0  0  0  0  0  0
    0.6307   -0.0776    0.0040 C   0  0  0  0  0  0  0  0  0  0  0  0
    1.6314    0.9805    0.0044 C   0  0  0  0  0  0  0  0  0  0  0  0
    2.7553   -1.0016   -0.0037 C   0  0  0  0  0  0  0  0  0  0  0  0
    1.3335   -1.3170   -0.0013 C   0  0  0  0  0  0  0  0  0  0  0  0
    4.0949    1.0675   -0.0014 C   0  0  0  0  0  0  0  0  0  0  0  0
   -0.7505   -0.0392    0.0076 C   0  0  0  0  0  0  0  0  0  0  0  0
    0.6577   -2.5222   -0.0032 C   0  0  0  0  0  0  0  0  0  0  0  0
    1.5464    2.3603    0.0086 C   0  0  0  0  0  0  0  0  0  0  0  0
   -1.4345   -1.2584    0.0057 C   0  0  0  0  0  0  0  0  0  0  0  0
    3.8957   -1.7830   -0.0086 C   0  0  0  0  0  0  0  0  0  0  0  0
   -0.7397   -2.4835    0.0004 C   0  0  0  0  0  0  0  0  0  0  0  0
    4.0034    2.4731    0.0028 C   0  0  0  0  0  0  0  0  0  0  0  0
    5.2541    0.2674   -0.0064 C   0  0  0  0  0  0  0  0  0  0  0  0
    2.7403    3.1037    0.0080 C   0  0  0  0  0  0  0  0  0  0  0  0
    5.1465   -1.1403   -0.0100 C   0  0  0  0  0  0  0  0  0  0  0  0
   -2.8896   -1.2628    0.0094 C   0  0  0  0  0  0  0  0  0  0  0  0
   -3.6619    0.0685    0.0152 C   0  0  0  0  0  0  0  0  0  0  0  0
   -5.1756   -0.1094   -0.0144 C   0  0  0  0  0  0  0  0  0  0  0  0
   -5.8756    1.2247   -0.0137 C   0  0  0  0  0  0  0  0  0  0  0  0
   -1.2520    0.9213    0.0133 H   0  0  0  0  0  0  0  0  0  0  0  0
    1.1824   -3.4711   -0.0072 H   0  0  0  0  0  0  0  0  0  0  0  0
    0.5885    2.8696    0.0126 H   0  0  0  0  0  0  0  0  0  0  0  0
    3.8407   -2.8665   -0.0114 H   0  0  0  0  0  0  0  0  0  0  0  0
   -1.2773   -3.4292   -0.0010 H   0  0  0  0  0  0  0  0  0  0  0  0
    4.9034    3.0826    0.0023 H   0  0  0  0  0  0  0  0  0  0  0  0
    6.2393    0.7267   -0.0075 H   0  0  0  0  0  0  0  0  0  0  0  0
    2.6904    4.1900    0.0113 H   0  0  0  0  0  0  0  0  0  0  0  0
    6.0531   -1.7409   -0.0139 H   0  0  0  0  0  0  0  0  0  0  0  0
   -3.3829    0.6220    0.9199 H   0  0  0  0  0  0  0  0  0  0  0  0
   -3.3558    0.6452   -0.8659 H   0  0  0  0  0  0  0  0  0  0  0  0
   -5.4739   -0.6564   -0.9155 H   0  0  0  0  0  0  0  0  0  0  0  0
   -5.5039   -0.6735    0.8655 H   0  0  0  0  0  0  0  0  0  0  0  0
   -7.6722    1.9775    0.0104 H   0  0  0  0  0  0  0  0  0  0  0  0
  1 20  2  0  0  0  0
  2 23  1  0  0  0  0
  2 37  1  0  0  0  0
  3 23  2  0  0  0  0
  4  6  1  0  0  0  0
  4  7  1  0  0  0  0
  4  9  2  0  0  0  0
  5  6  1  0  0  0  0
  5  8  2  0  0  0  0
  5 10  1  0  0  0  0
  6 12  2  0  0  0  0
  7  8  1  0  0  0  0
  7 14  2  0  0  0  0
  8 11  1  0  0  0  0
  9 16  1  0  0  0  0
  9 17  1  0  0  0  0
 10 13  2  0  0  0  0
 10 24  1  0  0  0  0
 11 15  2  0  0  0  0
 11 25  1  0  0  0  0
 12 18  1  0  0  0  0
 12 26  1  0  0  0  0
 13 15  1  0  0  0  0
 13 20  1  0  0  0  0
 14 19  1  0  0  0  0
 14 27  1  0  0  0  0
 15 28  1  0  0  0  0
 16 18  2  0  0  0  0
 16 29  1  0  0  0  0
 17 19  2  0  0  0  0
 17 30  1  0  0  0  0
 18 31  1  0  0  0  0
 19 32  1  0  0  0  0
 20 21  1  0  0  0  0
 21 22  1  0  0  0  0
 21 33  1  0  0  0  0
 21 34  1  0  0  0  0
 22 23  1  0  0  0  0
 22 35  1  0  0  0  0
 22 36  1  0  0  0  0
M  END
> <PUBCHEM_COMPOUND_CID>
10617

> <PUBCHEM_CONFORMER_RMSD>
0.8

> <PUBCHEM_CONFORMER_DIVERSEORDER>
1
9
15
20
5
10
21
2
4
8
18
13
7
22
6
11
3
19
14
12
16
17

> <PUBCHEM_MMFF94_PARTIAL_CHARGES>
27
1 -0.57
10 -0.15
11 -0.15
12 -0.15
13 0.09
14 -0.15
15 -0.15
16 -0.15
17 -0.15
18 -0.15
19 -0.15
2 -0.65
20 0.42
21 0.06
22 0.06
23 0.66
24 0.15
25 0.15
26 0.15
27 0.15
28 0.15
29 0.15
3 -0.57
30 0.15
31 0.15
32 0.15
37 0.5

> <PUBCHEM_EFFECTIVE_ROTOR_COUNT>
4

> <PUBCHEM_PHARMACOPHORE_FEATURES>
8
1 1 acceptor
1 2 acceptor
1 3 acceptor
3 2 3 23 anion
5 4 5 6 7 8 rings
6 4 6 9 12 16 18 rings
6 4 7 9 14 17 19 rings
6 5 8 10 11 13 15 rings

> <PUBCHEM_HEAVY_ATOM_COUNT>
23

> <PUBCHEM_ATOM_DEF_STEREO_COUNT>
0

> <PUBCHEM_ATOM_UDEF_STEREO_COUNT>
0

> <PUBCHEM_BOND_DEF_STEREO_COUNT>
0

> <PUBCHEM_BOND_UDEF_STEREO_COUNT>
0

> <PUBCHEM_ISOTOPIC_ATOM_COUNT>
0

> <PUBCHEM_COMPONENT_COUNT>
1

> <PUBCHEM_CACTVS_TAUTO_COUNT>
2

> <PUBCHEM_CONFORMER_ID>
0000297900000001

> <PUBCHEM_MMFF94_ENERGY>
84.0788

> <PUBCHEM_FEATURE_SELFOVERLAP>
40.959

> <PUBCHEM_SHAPE_FINGERPRINT>
10411042 1 17834395614443815174
10906281 52 17969786479128245552
10967382 1 18266741466950000002
11089746 13 18410006629062919623
11405975 8 18334855047695476195
11578080 2 14202550657930256228
11595378 159 16081354225102889221
12107183 9 18336819793349152810
12236239 1 17917989481831618999
12769317 202 18339631262103772281
13402501 40 18334293128872043373
13785724 45 17906732505867836994
14464042 87 17917152710723424849
14790565 3 18409733979874756541
15183329 4 18412827967172740545
15196674 1 18338799021452533571
15475509 8 17985569779033302078
15483637 11 17976819788275549437
1601671 61 18409446960158511766
16087824 20 18338237046726220596
17844677 252 18337679723300867083
18335252 114 18339633448400407869
20028762 73 18130224843923258678
20715895 44 18341049631939969273
20832881 197 18260829259504336162
21033648 144 18262225712253933221
21033648 29 18339355391521313296
21033650 10 14835586686150615219
21065198 57 18336548338399060075
21267235 1 18339370764064112694
21279426 13 18411984645748315694
21304253 335 18261959638581695940
21307412 95 17916049918279056270
21315763 129 18411136957075867023
21315764 268 18334009476441924205
21421861 104 17895457169270194650
21709351 56 18413100671963435279
22289505 5 18343023294098434012
23558518 356 17827357996948746826
23559900 14 18343020025781387026
2838139 119 18410568462688776037
335352 9 18410856551646136238
34934 24 18339919433256283250
350125 39 18408604742783885588
3680242 22 18262796268278164930
38695281 34 18201719531432874167
4017518 198 17274829043723016094
4073 2 17968945308738871530
4214541 1 18410575110928878275
474 4 18411702084603879955
5104073 3 18261106430327509739
543358 83 18410575097991105514
59124914 9 18336264561651779145
59755656 215 18339929207931858366
6328613 192 18334867151272272380
633830 44 18337101358335547046
8272917 22 18413390925631843598
9709674 26 18193561296994139490

> <PUBCHEM_SHAPE_MULTIPOLES>
455.72
13.46
3.16
0.6
19.97
0.81
0
6.03
0.05
-0.93
0
-0.07
-0.01
0.03

> <PUBCHEM_SHAPE_SELFOVERLAP>
1033.221

> <PUBCHEM_SHAPE_VOLUME>
240.5

> <PUBCHEM_COORDINATE_TYPE>
2
5
10

$$$$
