107828
  -OEChem-07202400463D

 43 44  0     0  0  0  0  0  0999 V2000
    1.8903    1.5508    0.8174 S   0  0  0  0  0  0  0  0  0  0  0  0
    2.1363    0.6436    1.9207 O   0  0  0  0  0  0  0  0  0  0  0  0
    2.5253    2.8535    0.7676 O   0  0  0  0  0  0  0  0  0  0  0  0
    2.9833   -2.6730   -0.4814 O   0  0  0  0  0  0  0  0  0  0  0  0
   -0.4042   -0.4829    0.4085 O   0  0  0  0  0  0  0  0  0  0  0  0
    3.0337   -1.8075    1.6198 O   0  0  0  0  0  0  0  0  0  0  0  0
   -6.6333    1.1602   -0.4304 O   0  0  0  0  0  0  0  0  0  0  0  0
   -4.1969   -2.9017   -0.2399 O   0  0  0  0  0  0  0  0  0  0  0  0
    0.2108    1.7522    0.5833 N   0  0  0  0  0  0  0  0  0  0  0  0
   -2.0241    1.1902    0.2412 N   0  0  0  0  0  0  0  0  0  0  0  0
   -4.3387    1.1922   -0.0953 N   0  0  0  0  0  0  0  0  0  0  0  0
   -3.1002   -0.8727    0.0013 N   0  0  0  0  0  0  0  0  0  0  0  0
    2.2976    0.7023   -0.6891 C   0  0  0  0  0  0  0  0  0  0  0  0
    3.7700    0.4284   -0.6743 C   0  0  0  0  0  0  0  0  0  0  0  0
    4.2747   -0.7514   -0.1319 C   0  0  0  0  0  0  0  0  0  0  0  0
    4.6340    1.3776   -1.2161 C   0  0  0  0  0  0  0  0  0  0  0  0
    5.6502   -0.9831   -0.1313 C   0  0  0  0  0  0  0  0  0  0  0  0
    6.0094    1.1457   -1.2156 C   0  0  0  0  0  0  0  0  0  0  0  0
    6.5175   -0.0344   -0.6732 C   0  0  0  0  0  0  0  0  0  0  0  0
   -0.7422    0.6944    0.4073 C   0  0  0  0  0  0  0  0  0  0  0  0
    3.3917   -1.7590    0.4398 C   0  0  0  0  0  0  0  0  0  0  0  0
   -3.2201    0.4633    0.0380 C   0  0  0  0  0  0  0  0  0  0  0  0
   -5.4604    0.4673   -0.2877 C   0  0  0  0  0  0  0  0  0  0  0  0
   -4.2598   -1.5341   -0.1940 C   0  0  0  0  0  0  0  0  0  0  0  0
   -5.4816   -0.9111   -0.3463 C   0  0  0  0  0  0  0  0  0  0  0  0
   -6.5517    2.5791   -0.3613 C   0  0  0  0  0  0  0  0  0  0  0  0
   -2.9116   -3.4898   -0.0770 C   0  0  0  0  0  0  0  0  0  0  0  0
    2.0269    1.3525   -1.5281 H   0  0  0  0  0  0  0  0  0  0  0  0
    1.7184   -0.2169   -0.7794 H   0  0  0  0  0  0  0  0  0  0  0  0
    4.2529    2.3014   -1.6433 H   0  0  0  0  0  0  0  0  0  0  0  0
   -0.1224    2.7142    0.4404 H   0  0  0  0  0  0  0  0  0  0  0  0
    6.0583   -1.8990    0.2886 H   0  0  0  0  0  0  0  0  0  0  0  0
    6.6848    1.8843   -1.6376 H   0  0  0  0  0  0  0  0  0  0  0  0
    7.5885   -0.2148   -0.6727 H   0  0  0  0  0  0  0  0  0  0  0  0
   -2.1416    2.1994    0.2652 H   0  0  0  0  0  0  0  0  0  0  0  0
   -6.3973   -1.4677   -0.5018 H   0  0  0  0  0  0  0  0  0  0  0  0
    2.3874   -3.3459   -0.0884 H   0  0  0  0  0  0  0  0  0  0  0  0
   -5.9237    2.9759   -1.1661 H   0  0  0  0  0  0  0  0  0  0  0  0
   -7.5608    2.9810   -0.4919 H   0  0  0  0  0  0  0  0  0  0  0  0
   -6.1831    2.9040    0.6175 H   0  0  0  0  0  0  0  0  0  0  0  0
   -3.0281   -4.5759   -0.1379 H   0  0  0  0  0  0  0  0  0  0  0  0
   -2.2326   -3.1777   -0.8776 H   0  0  0  0  0  0  0  0  0  0  0  0
   -2.4917   -3.2498    0.9055 H   0  0  0  0  0  0  0  0  0  0  0  0
  1  2  2  0  0  0  0
  1  3  2  0  0  0  0
  1  9  1  0  0  0  0
  1 13  1  0  0  0  0
  4 21  1  0  0  0  0
  4 37  1  0  0  0  0
  5 20  2  0  0  0  0
  6 21  2  0  0  0  0
  7 23  1  0  0  0  0
  7 26  1  0  0  0  0
  8 24  1  0  0  0  0
  8 27  1  0  0  0  0
  9 20  1  0  0  0  0
  9 31  1  0  0  0  0
 10 20  1  0  0  0  0
 10 22  1  0  0  0  0
 10 35  1  0  0  0  0
 11 22  1  0  0  0  0
 11 23  2  0  0  0  0
 12 22  2  0  0  0  0
 12 24  1  0  0  0  0
 13 14  1  0  0  0  0
 13 28  1  0  0  0  0
 13 29  1  0  0  0  0
 14 15  1  0  0  0  0
 14 16  2  0  0  0  0
 15 17  2  0  0  0  0
 15 21  1  0  0  0  0
 16 18  1  0  0  0  0
 16 30  1  0  0  0  0
 17 19  1  0  0  0  0
 17 32  1  0  0  0  0
 18 19  2  0  0  0  0
 18 33  1  0  0  0  0
 19 34  1  0  0  0  0
 23 25  1  0  0  0  0
 24 25  2  0  0  0  0
 25 36  1  0  0  0  0
 26 38  1  0  0  0  0
 26 39  1  0  0  0  0
 26 40  1  0  0  0  0
 27 41  1  0  0  0  0
 27 42  1  0  0  0  0
 27 43  1  0  0  0  0
M  END
> <PUBCHEM_COMPOUND_CID>
107828

> <PUBCHEM_CONFORMER_RMSD>
1

> <PUBCHEM_CONFORMER_DIVERSEORDER>
1
55
45
51
48
43
49
10
38
23
57
41
65
52
69
29
26
79
68
61
32
77
3
36
74
78
27
56
6
30
40
81
42
83
37
17
62
44
20
11
71
67
80
35
8
12
53
76
25
13
58
7
39
72
59
63
33
14
34
66
46
50
31
75
21
64
60
70
47
15
28
16
22
24
54
19
9
4
18
82
73
5
2

> <PUBCHEM_MMFF94_PARTIAL_CHARGES>
35
1 1.33
10 -0.55
11 -0.62
12 -0.62
13 0.25
14 -0.14
15 0.09
16 -0.15
17 -0.15
18 -0.15
19 -0.15
2 -0.65
20 0.87
21 0.63
22 0.74
23 0.39
24 0.39
25 -0.15
26 0.28
27 0.28
3 -0.65
30 0.15
31 0.42
32 0.15
33 0.15
34 0.15
35 0.37
36 0.15
37 0.5
4 -0.65
5 -0.57
6 -0.57
7 -0.36
8 -0.36
9 -0.79

> <PUBCHEM_EFFECTIVE_ROTOR_COUNT>
9

> <PUBCHEM_PHARMACOPHORE_FEATURES>
11
1 10 donor
1 2 acceptor
1 3 acceptor
1 4 acceptor
1 5 acceptor
1 6 acceptor
1 8 acceptor
1 9 donor
3 4 6 21 anion
6 11 12 22 23 24 25 rings
6 14 15 16 17 18 19 rings

> <PUBCHEM_HEAVY_ATOM_COUNT>
27

> <PUBCHEM_ATOM_DEF_STEREO_COUNT>
0

> <PUBCHEM_ATOM_UDEF_STEREO_COUNT>
0

> <PUBCHEM_BOND_DEF_STEREO_COUNT>
0

> <PUBCHEM_BOND_UDEF_STEREO_COUNT>
0

> <PUBCHEM_ISOTOPIC_ATOM_COUNT>
0

> <PUBCHEM_COMPONENT_COUNT>
1

> <PUBCHEM_CACTVS_TAUTO_COUNT>
5

> <PUBCHEM_CONFORMER_ID>
0001A53400000001

> <PUBCHEM_MMFF94_ENERGY>
71.6131

> <PUBCHEM_FEATURE_SELFOVERLAP>
55.953

> <PUBCHEM_SHAPE_FINGERPRINT>
10906281 52 18059025969284086497
11135609 149 15937789858546874154
11315181 36 17418097633008014881
11524674 6 17346599686346866023
11796584 16 18342462538456556830
12236239 1 18260268546669251822
12788726 201 17917153784406986209
14251752 14 18335702723715488445
14251757 5 18410856568783670755
14617045 38 18412269458263307339
15183329 4 18412543176834913057
15250474 111 18334845130516308539
17844677 252 18340492274261177865
17857418 61 18412261726952357227
18608769 82 18042415797421594867
20511986 3 18334286578577015814
2215653 11 18131626769031441741
22393880 68 18340205296887684650
23559900 14 18342733061462159785
239999 70 18060140981422862852
3004659 81 18334575716186696008
3411729 13 17345174779660342904
4073 2 18189338029322373448
4098825 35 17968095274766047668
439807 62 18335425728738164923
44062 13 18271242832946827255
6328613 192 18335985285841255317
6823239 73 18201430432814665266
7495541 125 18272091642975245204

> <PUBCHEM_SHAPE_MULTIPOLES>
498.49
17.72
3.06
1.06
8.63
1.66
0.25
-2.51
-5.41
2.57
0.11
-1.25
-0.19
-0.46

> <PUBCHEM_SHAPE_SELFOVERLAP>
1042.599

> <PUBCHEM_SHAPE_VOLUME>
282.5

> <PUBCHEM_COORDINATE_TYPE>
2
5
10

$$$$
