11057755
  -OEChem-07202400483D

 49 51  0     0  0  0  0  0  0999 V2000
   -2.5359   -4.7839   -1.1486 F   0  0  0  0  0  0  0  0  0  0  0  0
   -4.4966    3.0887   -1.1935 O   0  0  0  0  0  0  0  0  0  0  0  0
   -2.5439    0.4129    2.4462 O   0  0  0  0  0  0  0  0  0  0  0  0
    3.9826    1.2627   -1.7754 O   0  0  0  0  0  0  0  0  0  0  0  0
    5.6185    0.4070    0.3025 O   0  0  0  0  0  0  0  0  0  0  0  0
   -2.8592    1.4030    0.3684 N   0  0  0  0  0  0  0  0  0  0  0  0
   -2.3717    1.9574   -0.9018 C   0  0  0  0  0  0  0  0  0  0  0  0
   -4.3184    1.3092    0.4426 C   0  0  0  0  0  0  0  0  0  0  0  0
   -3.0781    3.2732   -1.2029 C   0  0  0  0  0  0  0  0  0  0  0  0
   -4.9508    2.6487    0.0892 C   0  0  0  0  0  0  0  0  0  0  0  0
   -2.0885    0.8677    1.3952 C   0  0  0  0  0  0  0  0  0  0  0  0
    0.0561   -0.1862    0.6735 C   0  0  0  0  0  0  0  0  0  0  0  0
   -0.6234    0.8375    1.2182 C   0  0  0  0  0  0  0  0  0  0  0  0
    1.5311   -0.0274    0.5718 C   0  0  0  0  0  0  0  0  0  0  0  0
   -0.6321   -1.4058    0.1912 C   0  0  0  0  0  0  0  0  0  0  0  0
    2.0613    0.5476   -0.5638 C   0  0  0  0  0  0  0  0  0  0  0  0
    2.3199   -0.4605    1.6166 C   0  0  0  0  0  0  0  0  0  0  0  0
    3.4449    0.6963   -0.6591 C   0  0  0  0  0  0  0  0  0  0  0  0
   -0.8149   -2.4627    1.0620 C   0  0  0  0  0  0  0  0  0  0  0  0
   -1.0724   -1.4532   -1.1177 C   0  0  0  0  0  0  0  0  0  0  0  0
    4.2660    0.2669    0.3835 C   0  0  0  0  0  0  0  0  0  0  0  0
    3.7035   -0.3117    1.5214 C   0  0  0  0  0  0  0  0  0  0  0  0
   -1.4626   -3.6110    0.6067 C   0  0  0  0  0  0  0  0  0  0  0  0
   -1.7202   -2.6015   -1.5731 C   0  0  0  0  0  0  0  0  0  0  0  0
   -1.9154   -3.6805   -0.7109 C   0  0  0  0  0  0  0  0  0  0  0  0
    4.3244    0.3853   -2.8467 C   0  0  0  0  0  0  0  0  0  0  0  0
    6.1757    1.6201    0.8045 C   0  0  0  0  0  0  0  0  0  0  0  0
   -2.6073    1.2196   -1.6769 H   0  0  0  0  0  0  0  0  0  0  0  0
   -1.2895    2.1059   -0.8830 H   0  0  0  0  0  0  0  0  0  0  0  0
   -4.6463    0.9826    1.4339 H   0  0  0  0  0  0  0  0  0  0  0  0
   -4.6189    0.5441   -0.2830 H   0  0  0  0  0  0  0  0  0  0  0  0
   -2.8102    4.0467   -0.4734 H   0  0  0  0  0  0  0  0  0  0  0  0
   -2.7927    3.6345   -2.1958 H   0  0  0  0  0  0  0  0  0  0  0  0
   -6.0398    2.5504    0.0446 H   0  0  0  0  0  0  0  0  0  0  0  0
   -4.7125    3.4134    0.8381 H   0  0  0  0  0  0  0  0  0  0  0  0
   -0.1127    1.7339    1.5631 H   0  0  0  0  0  0  0  0  0  0  0  0
    1.4250    0.8851   -1.3778 H   0  0  0  0  0  0  0  0  0  0  0  0
    1.8929   -0.9119    2.5076 H   0  0  0  0  0  0  0  0  0  0  0  0
   -0.4680   -2.4201    2.0908 H   0  0  0  0  0  0  0  0  0  0  0  0
   -0.9188   -0.6242   -1.8025 H   0  0  0  0  0  0  0  0  0  0  0  0
    4.3371   -0.6492    2.3371 H   0  0  0  0  0  0  0  0  0  0  0  0
   -1.6148   -4.4512    1.2777 H   0  0  0  0  0  0  0  0  0  0  0  0
   -2.0709   -2.6567   -2.5994 H   0  0  0  0  0  0  0  0  0  0  0  0
    3.4337   -0.1318   -3.2176 H   0  0  0  0  0  0  0  0  0  0  0  0
    5.0749   -0.3431   -2.5239 H   0  0  0  0  0  0  0  0  0  0  0  0
    4.7450    0.9842   -3.6591 H   0  0  0  0  0  0  0  0  0  0  0  0
    5.9660    1.7247    1.8737 H   0  0  0  0  0  0  0  0  0  0  0  0
    5.7797    2.4815    0.2576 H   0  0  0  0  0  0  0  0  0  0  0  0
    7.2593    1.5839    0.6625 H   0  0  0  0  0  0  0  0  0  0  0  0
  1 25  1  0  0  0  0
  2  9  1  0  0  0  0
  2 10  1  0  0  0  0
  3 11  2  0  0  0  0
  4 18  1  0  0  0  0
  4 26  1  0  0  0  0
  5 21  1  0  0  0  0
  5 27  1  0  0  0  0
  6  7  1  0  0  0  0
  6  8  1  0  0  0  0
  6 11  1  0  0  0  0
  7  9  1  0  0  0  0
  7 28  1  0  0  0  0
  7 29  1  0  0  0  0
  8 10  1  0  0  0  0
  8 30  1  0  0  0  0
  8 31  1  0  0  0  0
  9 32  1  0  0  0  0
  9 33  1  0  0  0  0
 10 34  1  0  0  0  0
 10 35  1  0  0  0  0
 11 13  1  0  0  0  0
 12 13  2  0  0  0  0
 12 14  1  0  0  0  0
 12 15  1  0  0  0  0
 13 36  1  0  0  0  0
 14 16  2  0  0  0  0
 14 17  1  0  0  0  0
 15 19  2  0  0  0  0
 15 20  1  0  0  0  0
 16 18  1  0  0  0  0
 16 37  1  0  0  0  0
 17 22  2  0  0  0  0
 17 38  1  0  0  0  0
 18 21  2  0  0  0  0
 19 23  1  0  0  0  0
 19 39  1  0  0  0  0
 20 24  2  0  0  0  0
 20 40  1  0  0  0  0
 21 22  1  0  0  0  0
 22 41  1  0  0  0  0
 23 25  2  0  0  0  0
 23 42  1  0  0  0  0
 24 25  1  0  0  0  0
 24 43  1  0  0  0  0
 26 44  1  0  0  0  0
 26 45  1  0  0  0  0
 26 46  1  0  0  0  0
 27 47  1  0  0  0  0
 27 48  1  0  0  0  0
 27 49  1  0  0  0  0
M  END
> <PUBCHEM_COMPOUND_CID>
11057755

> <PUBCHEM_CONFORMER_RMSD>
0.8

> <PUBCHEM_CONFORMER_DIVERSEORDER>
1
26
8
11
17
7
30
33
13
28
16
34
20
19
27
31
21
29
10
25
3
23
5
15
18
14
22
4
32
9
12
6
2
24

> <PUBCHEM_MMFF94_PARTIAL_CHARGES>
35
1 -0.19
10 0.28
11 0.62
12 -0.06
13 -0.14
14 0.03
15 0.03
16 -0.15
17 -0.15
18 0.08
19 -0.15
2 -0.56
20 -0.15
21 0.08
22 -0.15
23 -0.15
24 -0.15
25 0.19
26 0.28
27 0.28
3 -0.57
36 0.15
37 0.15
38 0.15
39 0.15
4 -0.36
40 0.15
41 0.15
42 0.15
43 0.15
5 -0.36
6 -0.66
7 0.3
8 0.3
9 0.28

> <PUBCHEM_EFFECTIVE_ROTOR_COUNT>
7.2

> <PUBCHEM_PHARMACOPHORE_FEATURES>
7
1 2 acceptor
1 3 acceptor
1 4 acceptor
1 5 acceptor
6 14 16 17 18 21 22 rings
6 15 19 20 23 24 25 rings
6 2 6 7 8 9 10 rings

> <PUBCHEM_HEAVY_ATOM_COUNT>
27

> <PUBCHEM_ATOM_DEF_STEREO_COUNT>
0

> <PUBCHEM_ATOM_UDEF_STEREO_COUNT>
0

> <PUBCHEM_BOND_DEF_STEREO_COUNT>
1

> <PUBCHEM_BOND_UDEF_STEREO_COUNT>
0

> <PUBCHEM_ISOTOPIC_ATOM_COUNT>
0

> <PUBCHEM_COMPONENT_COUNT>
1

> <PUBCHEM_CACTVS_TAUTO_COUNT>
1

> <PUBCHEM_CONFORMER_ID>
00A8BA5B00000001

> <PUBCHEM_MMFF94_ENERGY>
104.8196

> <PUBCHEM_FEATURE_SELFOVERLAP>
35.528

> <PUBCHEM_SHAPE_FINGERPRINT>
105312 117 18341334413693409765
10721379 63 17337030395889646797
11101153 10 17832142002612620124
11578080 2 17773027789961532816
12160290 23 18341904038242592507
12714826 92 17843981448892901146
12788726 201 18190463942441561719
13149001 5 17917134096213825297
133893 2 17621331138900242043
13583140 156 18260272966412523048
13681431 1 17187277410276096451
13911987 19 18341888542127455201
14251757 17 16343405263904536661
15131766 46 14925942468656528918
15163728 17 18046929094668179981
15463212 79 18335687339237203121
15849732 13 17972592196162462514
16752209 62 18341602767645660683
17539 30 18198051685111898319
17980427 26 17198574475739745115
1813 80 17623583346346086047
19958102 18 18343302556703121519
20197701 30 18338231540561712147
21344244 181 17346324761042456799
21756936 100 17532395208500534412
22907989 373 18199196259325164413
23227448 37 18338517555335127164
23557571 272 17916585474545154880
23559900 14 17244156924660032979
23598288 3 18114476650563759306
26353 1 17693656326438323951
3729539 64 17837796438283641718
4015057 19 16917352515779284656
44802255 64 18191049874981171502
53917941 68 18339909481073104200
59755656 520 18059864926135438187
633830 44 17488193581931834753
6669772 16 18129097818846345550
9981440 41 18116436942853327689

> <PUBCHEM_SHAPE_MULTIPOLES>
519.92
10.49
4.42
2
10.93
4.51
0.56
-9.72
0.97
-7.8
1.87
1.07
-0.05
-0.41

> <PUBCHEM_SHAPE_SELFOVERLAP>
1112.747

> <PUBCHEM_SHAPE_VOLUME>
290.7

> <PUBCHEM_COORDINATE_TYPE>
2
5
10

$$$$
