11097730
  -OEChem-07202400513D

 26 27  0     0  0  0  0  0  0999 V2000
   -1.2797    2.7276   -0.6004 Cl  0  0  0  0  0  0  0  0  0  0  0  0
   -5.5615   -0.4187    0.2418 Cl  0  0  0  0  0  0  0  0  0  0  0  0
    3.0519    0.3009    1.9867 O   0  0  0  0  0  0  0  0  0  0  0  0
    1.0620   -2.0389    0.1714 O   0  0  0  0  0  0  0  0  0  0  0  0
    3.4290    1.8377    0.3369 O   0  0  0  0  0  0  0  0  0  0  0  0
    0.3014    0.1608   -0.2007 N   0  0  0  0  0  0  0  0  0  0  0  0
    2.6591   -0.3208   -0.2428 C   0  0  0  0  0  0  0  0  0  0  0  0
    3.6717   -1.3052   -0.7139 C   0  0  0  0  0  0  0  0  0  0  0  0
    3.1519   -0.2504   -1.6460 C   0  0  0  0  0  0  0  0  0  0  0  0
    1.2587   -0.8508   -0.0625 C   0  0  0  0  0  0  0  0  0  0  0  0
    3.0868    0.7225    0.6998 C   0  0  0  0  0  0  0  0  0  0  0  0
   -1.0886    0.0507   -0.1009 C   0  0  0  0  0  0  0  0  0  0  0  0
   -1.9205    1.1583   -0.2658 C   0  0  0  0  0  0  0  0  0  0  0  0
   -1.6400   -1.2016    0.1698 C   0  0  0  0  0  0  0  0  0  0  0  0
   -3.3037    1.0134   -0.1599 C   0  0  0  0  0  0  0  0  0  0  0  0
   -3.0232   -1.3464    0.2757 C   0  0  0  0  0  0  0  0  0  0  0  0
   -3.8551   -0.2389    0.1108 C   0  0  0  0  0  0  0  0  0  0  0  0
    3.3834   -2.3299   -0.9158 H   0  0  0  0  0  0  0  0  0  0  0  0
    4.6946   -1.2064   -0.3678 H   0  0  0  0  0  0  0  0  0  0  0  0
    3.8374    0.5373   -1.9357 H   0  0  0  0  0  0  0  0  0  0  0  0
    2.4971   -0.5700   -2.4489 H   0  0  0  0  0  0  0  0  0  0  0  0
    0.6430    1.0978   -0.4041 H   0  0  0  0  0  0  0  0  0  0  0  0
    3.3376    1.0022    2.6101 H   0  0  0  0  0  0  0  0  0  0  0  0
   -1.0732   -2.1096    0.3120 H   0  0  0  0  0  0  0  0  0  0  0  0
   -3.9544    1.8759   -0.2878 H   0  0  0  0  0  0  0  0  0  0  0  0
   -3.4405   -2.3278    0.4871 H   0  0  0  0  0  0  0  0  0  0  0  0
  1 13  1  0  0  0  0
  2 17  1  0  0  0  0
  3 11  1  0  0  0  0
  3 23  1  0  0  0  0
  4 10  2  0  0  0  0
  5 11  2  0  0  0  0
  6 10  1  0  0  0  0
  6 12  1  0  0  0  0
  6 22  1  0  0  0  0
  7  8  1  0  0  0  0
  7  9  1  0  0  0  0
  7 10  1  0  0  0  0
  7 11  1  0  0  0  0
  8  9  1  0  0  0  0
  8 18  1  0  0  0  0
  8 19  1  0  0  0  0
  9 20  1  0  0  0  0
  9 21  1  0  0  0  0
 12 13  2  0  0  0  0
 12 14  1  0  0  0  0
 13 15  1  0  0  0  0
 14 16  2  0  0  0  0
 14 24  1  0  0  0  0
 15 17  2  0  0  0  0
 15 25  1  0  0  0  0
 16 17  1  0  0  0  0
 16 26  1  0  0  0  0
M  END
> <PUBCHEM_COMPOUND_CID>
11097730

> <PUBCHEM_CONFORMER_RMSD>
0.6

> <PUBCHEM_CONFORMER_DIVERSEORDER>
1
15
14
17
4
7
5
8
3
12
16
6
11
18
13
2
10
9

> <PUBCHEM_MMFF94_PARTIAL_CHARGES>
25
1 -0.18
10 0.63
11 0.72
12 0.12
13 0.18
14 -0.15
15 -0.15
16 -0.15
17 0.18
18 0.1
19 0.1
2 -0.18
20 0.1
21 0.1
22 0.37
23 0.5
24 0.15
25 0.15
26 0.15
3 -0.65
4 -0.57
5 -0.57
6 -0.55
8 -0.2
9 -0.2

> <PUBCHEM_EFFECTIVE_ROTOR_COUNT>
4.6

> <PUBCHEM_PHARMACOPHORE_FEATURES>
6
1 3 acceptor
1 4 acceptor
1 5 acceptor
1 6 donor
3 3 5 11 anion
6 12 13 14 15 16 17 rings

> <PUBCHEM_HEAVY_ATOM_COUNT>
17

> <PUBCHEM_ATOM_DEF_STEREO_COUNT>
0

> <PUBCHEM_ATOM_UDEF_STEREO_COUNT>
0

> <PUBCHEM_BOND_DEF_STEREO_COUNT>
0

> <PUBCHEM_BOND_UDEF_STEREO_COUNT>
0

> <PUBCHEM_ISOTOPIC_ATOM_COUNT>
0

> <PUBCHEM_COMPONENT_COUNT>
1

> <PUBCHEM_CACTVS_TAUTO_COUNT>
2

> <PUBCHEM_CONFORMER_ID>
00A9568200000001

> <PUBCHEM_MMFF94_ENERGY>
43.4741

> <PUBCHEM_FEATURE_SELFOVERLAP>
30.5

> <PUBCHEM_SHAPE_FINGERPRINT>
10366900 7 18261967270617397698
10498660 4 18334576819534855693
10608611 8 18411697647422764508
11132069 177 18410571807977545993
11715629 250 18341886372820050758
12236239 1 17095242514204588366
12403259 226 18338795589979184692
12592029 89 13479400665971729753
13134695 92 16987990580360619736
13296908 3 18272933821093850727
13533116 47 17385996235557095243
15375358 24 18335417980859353187
15536298 74 18343305885423737261
17802600 8 18411699846683228014
17834072 33 16845569851156233415
18186145 218 18202568345396893938
20510252 161 18411981321924027241
20528008 55 18341894095566991719
20645477 70 17632302250400277198
21029758 11 18411415129681734421
21267235 1 18335997393243169495
21486144 27 17346874580821592598
21618674 68 18341895224937974348
22182937 141 17984707714562423729
22854114 59 18343582949621944307
23402539 116 18413386515322624103
23557571 272 18337963290058273301
23559900 14 18410573942492026174
5104073 3 18409732824781547921
522135 26 16200437965698968382
5281201 14 17917437488281721516
5374978 207 18260826007791664457
537710 114 18187091671707070909
6049 1 18200594696476934220
6333272 397 18408884074655941192
7364860 26 18195524796864343186
81228 2 18188503362996099393
9709674 26 18339368457107687679

> <PUBCHEM_SHAPE_MULTIPOLES>
331
9
2
1.06
4.58
1
-0.15
-1.07
-0.36
0.18
0.17
-1.29
0.09
0.86

> <PUBCHEM_SHAPE_SELFOVERLAP>
686.516

> <PUBCHEM_SHAPE_VOLUME>
191.2

> <PUBCHEM_COORDINATE_TYPE>
2
5
10

$$$$
