11193251
  -OEChem-07202400403D

 60 61  0     0  0  0  0  0  0999 V2000
    7.0732   -0.4758   -0.0837 I   0  0  0  0  0  0  0  0  0  0  0  0
    1.7116    3.1967   -1.1972 S   0  0  0  0  0  0  0  0  0  0  0  0
   -5.0189    0.0932    1.9216 F   0  0  0  0  0  0  0  0  0  0  0  0
   -7.0347   -0.7775    0.3623 F   0  0  0  0  0  0  0  0  0  0  0  0
   -5.6630   -1.3917   -1.2107 F   0  0  0  0  0  0  0  0  0  0  0  0
   -5.5348   -2.3026    0.7689 F   0  0  0  0  0  0  0  0  0  0  0  0
   -6.4094    1.5995    0.1918 F   0  0  0  0  0  0  0  0  0  0  0  0
   -4.3566    2.2951    0.4498 F   0  0  0  0  0  0  0  0  0  0  0  0
   -4.9459    1.2987   -1.3920 F   0  0  0  0  0  0  0  0  0  0  0  0
    1.8522    1.9353   -1.9041 O   0  0  0  0  0  0  0  0  0  0  0  0
    0.5812    3.4283   -0.3144 O   0  0  0  0  0  0  0  0  0  0  0  0
    4.1214    0.0069    2.1918 O   0  0  0  0  0  0  0  0  0  0  0  0
    1.5660   -1.5300    1.7923 O   0  0  0  0  0  0  0  0  0  0  0  0
    3.6508    1.1271    0.2177 N   0  0  0  0  0  0  0  0  0  0  0  0
    0.6628   -1.5536   -0.3731 N   0  0  0  0  0  0  0  0  0  0  0  0
    3.4915    2.4436    0.8100 C   0  0  0  0  0  0  0  0  0  0  0  0
    3.1944    3.4845   -0.2820 C   0  0  0  0  0  0  0  0  0  0  0  0
    4.8110    2.8277    1.5005 C   0  0  0  0  0  0  0  0  0  0  0  0
    2.3831    2.3956    1.8709 C   0  0  0  0  0  0  0  0  0  0  0  0
    1.7201    4.4962   -2.4107 C   0  0  0  0  0  0  0  0  0  0  0  0
    3.9559    0.0118    0.9748 C   0  0  0  0  0  0  0  0  0  0  0  0
    4.1116   -1.2560    0.2162 C   0  0  0  0  0  0  0  0  0  0  0  0
   -4.7558   -0.0659    0.5686 C   0  0  0  0  0  0  0  0  0  0  0  0
   -3.3386   -0.4557    0.3163 C   0  0  0  0  0  0  0  0  0  0  0  0
    2.9925   -2.0688    0.0357 C   0  0  0  0  0  0  0  0  0  0  0  0
   -1.5822   -1.0818   -1.2198 C   0  0  0  0  0  0  0  0  0  0  0  0
   -0.6874   -1.1849   -0.1546 C   0  0  0  0  0  0  0  0  0  0  0  0
   -2.9078   -0.7174   -0.9843 C   0  0  0  0  0  0  0  0  0  0  0  0
   -2.4439   -0.5588    1.3815 C   0  0  0  0  0  0  0  0  0  0  0  0
   -5.7555   -1.1414    0.1121 C   0  0  0  0  0  0  0  0  0  0  0  0
   -5.1141    1.2959   -0.0493 C   0  0  0  0  0  0  0  0  0  0  0  0
    5.3447   -1.6398   -0.3108 C   0  0  0  0  0  0  0  0  0  0  0  0
   -1.1183   -0.9233    1.1459 C   0  0  0  0  0  0  0  0  0  0  0  0
    1.6863   -1.7034    0.5707 C   0  0  0  0  0  0  0  0  0  0  0  0
    3.1065   -3.2655   -0.6720 C   0  0  0  0  0  0  0  0  0  0  0  0
   -1.1482   -1.3564   -2.6231 C   0  0  0  0  0  0  0  0  0  0  0  0
    5.4587   -2.8364   -1.0185 C   0  0  0  0  0  0  0  0  0  0  0  0
    4.3395   -3.6492   -1.1990 C   0  0  0  0  0  0  0  0  0  0  0  0
    4.0084    3.5027   -1.0170 H   0  0  0  0  0  0  0  0  0  0  0  0
    3.1069    4.4872    0.1520 H   0  0  0  0  0  0  0  0  0  0  0  0
    5.0660    2.1879    2.3500 H   0  0  0  0  0  0  0  0  0  0  0  0
    4.7589    3.8525    1.8874 H   0  0  0  0  0  0  0  0  0  0  0  0
    5.6504    2.7861    0.7965 H   0  0  0  0  0  0  0  0  0  0  0  0
    2.0867    3.4069    2.1724 H   0  0  0  0  0  0  0  0  0  0  0  0
    2.6964    1.8819    2.7858 H   0  0  0  0  0  0  0  0  0  0  0  0
    1.4927    1.8699    1.5092 H   0  0  0  0  0  0  0  0  0  0  0  0
    3.5537    1.0266   -0.7889 H   0  0  0  0  0  0  0  0  0  0  0  0
    0.8234    4.3933   -3.0253 H   0  0  0  0  0  0  0  0  0  0  0  0
    1.7129    5.4587   -1.8959 H   0  0  0  0  0  0  0  0  0  0  0  0
    2.6126    4.3939   -3.0305 H   0  0  0  0  0  0  0  0  0  0  0  0
   -3.5889   -0.6318   -1.8254 H   0  0  0  0  0  0  0  0  0  0  0  0
   -2.7598   -0.3577    2.4015 H   0  0  0  0  0  0  0  0  0  0  0  0
   -0.4923   -0.9782    2.0243 H   0  0  0  0  0  0  0  0  0  0  0  0
    0.9195   -1.7199   -1.3426 H   0  0  0  0  0  0  0  0  0  0  0  0
    2.2463   -3.9142   -0.8177 H   0  0  0  0  0  0  0  0  0  0  0  0
   -1.9718   -1.2359   -3.3354 H   0  0  0  0  0  0  0  0  0  0  0  0
   -0.7870   -2.3856   -2.7201 H   0  0  0  0  0  0  0  0  0  0  0  0
   -0.3578   -0.6605   -2.9239 H   0  0  0  0  0  0  0  0  0  0  0  0
    6.4083   -3.1581   -1.4388 H   0  0  0  0  0  0  0  0  0  0  0  0
    4.4285   -4.5816   -1.7488 H   0  0  0  0  0  0  0  0  0  0  0  0
  1 32  1  0  0  0  0
  2 10  2  0  0  0  0
  2 11  2  0  0  0  0
  2 17  1  0  0  0  0
  2 20  1  0  0  0  0
  3 23  1  0  0  0  0
  4 30  1  0  0  0  0
  5 30  1  0  0  0  0
  6 30  1  0  0  0  0
  7 31  1  0  0  0  0
  8 31  1  0  0  0  0
  9 31  1  0  0  0  0
 12 21  2  0  0  0  0
 13 34  2  0  0  0  0
 14 16  1  0  0  0  0
 14 21  1  0  0  0  0
 14 47  1  0  0  0  0
 15 27  1  0  0  0  0
 15 34  1  0  0  0  0
 15 54  1  0  0  0  0
 16 17  1  0  0  0  0
 16 18  1  0  0  0  0
 16 19  1  0  0  0  0
 17 39  1  0  0  0  0
 17 40  1  0  0  0  0
 18 41  1  0  0  0  0
 18 42  1  0  0  0  0
 18 43  1  0  0  0  0
 19 44  1  0  0  0  0
 19 45  1  0  0  0  0
 19 46  1  0  0  0  0
 20 48  1  0  0  0  0
 20 49  1  0  0  0  0
 20 50  1  0  0  0  0
 21 22  1  0  0  0  0
 22 25  2  0  0  0  0
 22 32  1  0  0  0  0
 23 24  1  0  0  0  0
 23 30  1  0  0  0  0
 23 31  1  0  0  0  0
 24 28  2  0  0  0  0
 24 29  1  0  0  0  0
 25 34  1  0  0  0  0
 25 35  1  0  0  0  0
 26 27  2  0  0  0  0
 26 28  1  0  0  0  0
 26 36  1  0  0  0  0
 27 33  1  0  0  0  0
 28 51  1  0  0  0  0
 29 33  2  0  0  0  0
 29 52  1  0  0  0  0
 32 37  2  0  0  0  0
 33 53  1  0  0  0  0
 35 38  2  0  0  0  0
 35 55  1  0  0  0  0
 36 56  1  0  0  0  0
 36 57  1  0  0  0  0
 36 58  1  0  0  0  0
 37 38  1  0  0  0  0
 37 59  1  0  0  0  0
 38 60  1  0  0  0  0
M  END
> <PUBCHEM_COMPOUND_CID>
11193251

> <PUBCHEM_CONFORMER_RMSD>
1.2

> <PUBCHEM_CONFORMER_DIVERSEORDER>
1
44
37
11
64
50
28
59
27
46
73
18
71
55
45
53
35
40
29
31
7
19
54
30
13
83
75
10
6
49
23
36
67
43
80
8
38
61
52
9
68
74
3
78
24
42
48
39
41
20
82
57
58
4
51
5
60
15
33
26
66
81
69
17
77
79
72
76
47
65
14
62
70
25
34
63
2
22
56
32
21
16
12

> <PUBCHEM_MMFF94_PARTIAL_CHARGES>
44
1 -0.08
10 -0.65
11 -0.65
12 -0.57
13 -0.57
14 -0.73
15 -0.55
16 0.3
17 0.11
2 1.09
20 0.11
21 0.54
22 0.09
23 0.48
24 -0.14
25 0.09
26 -0.14
27 0.12
28 -0.15
29 -0.15
3 -0.34
30 1.02
31 1.02
32 0.08
33 -0.15
34 0.54
35 -0.15
36 0.14
37 -0.15
38 -0.15
4 -0.34
47 0.37
5 -0.34
51 0.15
52 0.15
53 0.15
54 0.37
55 0.15
59 0.15
6 -0.34
60 0.15
7 -0.34
8 -0.34
9 -0.34

> <PUBCHEM_EFFECTIVE_ROTOR_COUNT>
11

> <PUBCHEM_PHARMACOPHORE_FEATURES>
10
1 1 hydrophobe
1 10 acceptor
1 11 acceptor
1 12 acceptor
1 13 acceptor
1 14 donor
1 15 donor
3 16 18 19 hydrophobe
6 22 25 32 35 37 38 rings
6 24 26 27 28 29 33 rings

> <PUBCHEM_HEAVY_ATOM_COUNT>
38

> <PUBCHEM_ATOM_DEF_STEREO_COUNT>
0

> <PUBCHEM_ATOM_UDEF_STEREO_COUNT>
0

> <PUBCHEM_BOND_DEF_STEREO_COUNT>
0

> <PUBCHEM_BOND_UDEF_STEREO_COUNT>
0

> <PUBCHEM_ISOTOPIC_ATOM_COUNT>
0

> <PUBCHEM_COMPONENT_COUNT>
1

> <PUBCHEM_CACTVS_TAUTO_COUNT>
4

> <PUBCHEM_CONFORMER_ID>
00AACBA300000001

> <PUBCHEM_MMFF94_ENERGY>
103.0706

> <PUBCHEM_FEATURE_SELFOVERLAP>
50.764

> <PUBCHEM_SHAPE_FINGERPRINT>
10763959 59 18340770342705869416
10864689 126 17541650622031102973
12107698 1 18411983537615150243
12156800 1 17339598936862342956
12166972 35 18342462525571479489
12422481 6 18341896256030909597
13165053 68 17983571085758814695
13782708 43 17822293414352687898
14849402 71 18188219796117154020
15021287 119 18343015567083425927
15081414 286 18335416898527919700
15183329 4 15913321364661650550
15420108 30 17982994938150581266
15439362 3 18126564747042772136
15840311 113 18273214171549012529
17844677 252 18343588408699834171
1979834 28 18339355379206240256
23522609 53 17131290063916112979
23559900 14 18260274061687419507
335507 130 18272368720011394591
340366 18 17775001272000474038
3493558 16 18200319792958565881
397830 11 18262245546672018715
4112364 45 17274252972116256240
4144715 1 18409175415615857091
5081480 168 18337950099923674028
508706 21 17530955861780352509
513532 50 18129955576008624420
53794403 172 18042693981888340684
6086070 43 17823396267806956279
77296 10 18341332283949033879

> <PUBCHEM_SHAPE_MULTIPOLES>
713.45
16.32
4.75
1.89
16.72
3.82
0.38
-4.35
-1.97
-6.32
2.15
-0.38
0.82
1.11

> <PUBCHEM_SHAPE_SELFOVERLAP>
1493.121

> <PUBCHEM_SHAPE_VOLUME>
411.4

> <PUBCHEM_COORDINATE_TYPE>
2
5
10

$$$$
