11205153
  -OEChem-07202400503D

 39 40  0     0  0  0  0  0  0999 V2000
   -2.0895   -1.5170   -0.7287 S   0  0  0  0  0  0  0  0  0  0  0  0
   -4.5334    1.2745    1.3797 S   0  0  0  0  0  0  0  0  0  0  0  0
   -2.6053   -1.4541   -2.0815 O   0  0  0  0  0  0  0  0  0  0  0  0
   -2.3815   -2.6332    0.1486 O   0  0  0  0  0  0  0  0  0  0  0  0
    4.8533    0.1092    1.3472 O   0  0  0  0  0  0  0  0  0  0  0  0
   -0.5566    2.7003   -0.0605 O   0  0  0  0  0  0  0  0  0  0  0  0
   -0.0375   -1.1532    1.5494 O   0  0  0  0  0  0  0  0  0  0  0  0
    2.0376   -0.5852   -2.2200 O   0  0  0  0  0  0  0  0  0  0  0  0
   -0.7008    1.0815   -1.6776 O   0  0  0  0  0  0  0  0  0  0  0  0
   -0.4068   -1.2268   -0.7500 N   0  0  0  0  0  0  0  0  0  0  0  0
    1.7432   -0.6851    0.1466 N   0  0  0  0  0  0  0  0  0  0  0  0
    3.7503   -0.1562   -0.6823 N   0  0  0  0  0  0  0  0  0  0  0  0
    2.5907   -0.4756    1.2175 N   0  0  0  0  0  0  0  0  0  0  0  0
   -2.8686   -0.1524    0.0413 C   0  0  0  0  0  0  0  0  0  0  0  0
   -4.0416   -0.2430    0.7574 C   0  0  0  0  0  0  0  0  0  0  0  0
   -2.3664    1.1803    0.0031 C   0  0  0  0  0  0  0  0  0  0  0  0
   -3.1749    2.0578    0.6916 C   0  0  0  0  0  0  0  0  0  0  0  0
    0.4109   -1.0304    0.4111 C   0  0  0  0  0  0  0  0  0  0  0  0
   -4.8767   -1.4339    1.0342 C   0  0  0  0  0  0  0  0  0  0  0  0
    2.4687   -0.4846   -1.0801 C   0  0  0  0  0  0  0  0  0  0  0  0
    3.7249   -0.1761    0.6687 C   0  0  0  0  0  0  0  0  0  0  0  0
   -1.1643    1.6174   -0.6595 C   0  0  0  0  0  0  0  0  0  0  0  0
    4.8754    0.1429   -1.5456 C   0  0  0  0  0  0  0  0  0  0  0  0
    4.7038    0.0558    2.7581 C   0  0  0  0  0  0  0  0  0  0  0  0
    0.6452    3.1869   -0.6685 C   0  0  0  0  0  0  0  0  0  0  0  0
    0.0220   -1.0731   -1.6708 H   0  0  0  0  0  0  0  0  0  0  0  0
   -3.0486    3.1231    0.8284 H   0  0  0  0  0  0  0  0  0  0  0  0
   -4.4160   -2.0553    1.8090 H   0  0  0  0  0  0  0  0  0  0  0  0
   -5.8804   -1.1664    1.3828 H   0  0  0  0  0  0  0  0  0  0  0  0
   -5.0098   -2.0395    0.1317 H   0  0  0  0  0  0  0  0  0  0  0  0
    5.2324    1.1511   -1.3171 H   0  0  0  0  0  0  0  0  0  0  0  0
    4.5834    0.0741   -2.5959 H   0  0  0  0  0  0  0  0  0  0  0  0
    5.6803   -0.5651   -1.3288 H   0  0  0  0  0  0  0  0  0  0  0  0
    4.4261   -0.9516    3.0852 H   0  0  0  0  0  0  0  0  0  0  0  0
    3.9732    0.7948    3.1033 H   0  0  0  0  0  0  0  0  0  0  0  0
    5.6697    0.3015    3.2092 H   0  0  0  0  0  0  0  0  0  0  0  0
    1.4274    2.4247   -0.6163 H   0  0  0  0  0  0  0  0  0  0  0  0
    0.9749    4.0680   -0.1119 H   0  0  0  0  0  0  0  0  0  0  0  0
    0.4554    3.4770   -1.7061 H   0  0  0  0  0  0  0  0  0  0  0  0
  1  3  2  0  0  0  0
  1  4  2  0  0  0  0
  1 10  1  0  0  0  0
  1 14  1  0  0  0  0
  2 15  1  0  0  0  0
  2 17  1  0  0  0  0
  5 21  1  0  0  0  0
  5 24  1  0  0  0  0
  6 22  1  0  0  0  0
  6 25  1  0  0  0  0
  7 18  2  0  0  0  0
  8 20  2  0  0  0  0
  9 22  2  0  0  0  0
 10 18  1  0  0  0  0
 10 26  1  0  0  0  0
 11 13  1  0  0  0  0
 11 18  1  0  0  0  0
 11 20  1  0  0  0  0
 12 20  1  0  0  0  0
 12 21  1  0  0  0  0
 12 23  1  0  0  0  0
 13 21  2  0  0  0  0
 14 15  2  0  0  0  0
 14 16  1  0  0  0  0
 15 19  1  0  0  0  0
 16 17  2  0  0  0  0
 16 22  1  0  0  0  0
 17 27  1  0  0  0  0
 19 28  1  0  0  0  0
 19 29  1  0  0  0  0
 19 30  1  0  0  0  0
 23 31  1  0  0  0  0
 23 32  1  0  0  0  0
 23 33  1  0  0  0  0
 24 34  1  0  0  0  0
 24 35  1  0  0  0  0
 24 36  1  0  0  0  0
 25 37  1  0  0  0  0
 25 38  1  0  0  0  0
 25 39  1  0  0  0  0
M  END
> <PUBCHEM_COMPOUND_CID>
11205153

> <PUBCHEM_CONFORMER_RMSD>
0.8

> <PUBCHEM_CONFORMER_DIVERSEORDER>
5
395
185
100
373
362
146
352
344
293
23
402
125
285
225
289
276
187
366
308
334
409
302
338
391
288
123
265
220
77
416
408
226
197
301
376
250
323
153
148
290
188
87
213
168
324
229
326
221
91
311
105
216
411
287
372
231
418
297
284
274
259
132
392
332
371
177
51
319
403
107
164
407
174
282
219
227
214
252
201
422
355
163
280
303
354
159
306
351
114
283
246
347
92
278
253
206
115
315
269
414
368
261
99
400
233
348
399
243
389
120
134
361
381
139
64
204
260
195
145
337
421
129
272
32
169
291
346
80
72
304
298
84
309
415
405
360
83
85
267
215
312
137
234
262
375
41
94
199
279
420
238
398
313
359
104
138
281
95
135
258
396
300
3
108
384
196
180
363
155
340
141
277
75
162
223
256
333
329
194
140
9
328
203
369
271
305
380
268
191
210
245
294
364
377
378
240
82
310
425
424
393
171
230
102
46
356
410
200
367
65
212
136
353
106
286
78
69
175
341
237
130
218
207
336
382
154
331
322
59
266
247
86
299
121
58
167
244
342
390
241
190
147
97
211
273
109
198
90
208
343
42
423
387
166
176
184
192
270
358
327
330
93
127
189
157
98
149
52
419
28
81
318
183
150
182
394
179
88
142
296
317
345
165
48
152
321
49
228
63
57
307
79
178
193
370
412
295
70
413
242
217
128
74
248
110
12
314
251
160
385
406
264
112
55
401
254
249
209
113
76
255
239
263
339
44
365
116
117
18
144
21
316
101
325
131
388
161
61
119
275
62
30
170
43
158
257
172
17
96
236
379
173
374
417
126
186
16
54
383
22
202
151
33
36
122
349
350
205
11
71
60
53
38
73
133
357
2
292
26
232
50
386
335
56
404
8
156
37
111
10
4
143
1
14
235
224
34
40
20
68
7
19
118
13
426
222
24
39
29
89
6
181
103
25
47
31
67
66
45
320
35
124
15
27
397

> <PUBCHEM_MMFF94_PARTIAL_CHARGES>
27
1 1.5
10 -0.79
11 -0.06
12 -0.42
13 -0.51
14 -0.06
15 -0.14
16 -0.09
17 -0.11
18 0.87
19 0.18
2 -0.08
20 0.69
21 0.66
22 0.81
23 0.3
24 0.28
25 0.28
26 0.42
27 0.15
3 -0.65
4 -0.65
5 -0.43
6 -0.43
7 -0.57
8 -0.57
9 -0.57

> <PUBCHEM_EFFECTIVE_ROTOR_COUNT>
7

> <PUBCHEM_PHARMACOPHORE_FEATURES>
8
1 10 donor
1 3 acceptor
1 4 acceptor
1 7 acceptor
1 8 acceptor
1 9 acceptor
5 11 12 13 20 21 rings
5 2 14 15 16 17 rings

> <PUBCHEM_HEAVY_ATOM_COUNT>
25

> <PUBCHEM_ATOM_DEF_STEREO_COUNT>
0

> <PUBCHEM_ATOM_UDEF_STEREO_COUNT>
0

> <PUBCHEM_BOND_DEF_STEREO_COUNT>
0

> <PUBCHEM_BOND_UDEF_STEREO_COUNT>
0

> <PUBCHEM_ISOTOPIC_ATOM_COUNT>
0

> <PUBCHEM_COMPONENT_COUNT>
1

> <PUBCHEM_CACTVS_TAUTO_COUNT>
2

> <PUBCHEM_CONFORMER_ID>
00AAFA2100000005

> <PUBCHEM_MMFF94_ENERGY>
48.0914

> <PUBCHEM_FEATURE_SELFOVERLAP>
40.615

> <PUBCHEM_SHAPE_FINGERPRINT>
10369192 42 16628256978780303408
11132069 177 18410573950923770021
11595378 159 18261946367528279592
12011746 2 18343022156158940949
12236239 1 17676496051032102718
12403814 3 17458348507448868293
12553582 1 18408321098821946564
12596602 18 17530959190453697600
12633257 1 18410287025849975144
13140716 1 18193849369193260059
13224815 77 17822011995119789430
133893 2 17899129704930670013
13782708 43 17561093487776329775
14081887 123 18341325596178473928
14341114 328 17967827011203353729
14787075 74 17822305603347521393
17349148 13 17313103025656551930
200 152 15936408935743956011
20645477 56 17775847912764146875
20691752 17 17604987198837285917
21033648 29 17703512112625634115
22907989 373 11095016341123889897
23227448 37 17274811497820819921
23557571 272 18200888326189870310
23559900 14 18127710239424335518
23598288 3 18042394738631738031
34934 24 18189340074418084377
6287921 2 17630314466563552592
7064713 232 18271531901077726697
9925002 15 16909724335669992638

> <PUBCHEM_SHAPE_MULTIPOLES>
461.18
9.89
2.45
1.97
5.25
1.36
0.35
-0.62
4.31
-2.27
-0.45
2.09
-0.2
-0.34

> <PUBCHEM_SHAPE_SELFOVERLAP>
949.01

> <PUBCHEM_SHAPE_VOLUME>
267.5

> <PUBCHEM_COORDINATE_TYPE>
2
5
10

$$$$
