11338509
  -OEChem-07202400573D

 54 54  0     1  0  0  0  0  0999 V2000
   -5.7311    3.8412   -0.0292 Cl  0  0  0  0  0  0  0  0  0  0  0  0
    0.3245    0.5362   -1.4868 O   0  0  0  0  0  0  0  0  0  0  0  0
    4.6266    0.7876   -1.0279 O   0  0  0  0  0  0  0  0  0  0  0  0
   -2.1272   -4.2672    0.7594 O   0  0  0  0  0  0  0  0  0  0  0  0
    3.9759   -1.1698   -0.0181 O   0  0  0  0  0  0  0  0  0  0  0  0
   -0.8657   -3.4866   -1.0068 O   0  0  0  0  0  0  0  0  0  0  0  0
   -0.8005   -0.6151    0.1852 N   0  0  0  0  0  0  0  0  0  0  0  0
    2.5878    0.6885   -0.0860 N   0  0  0  0  0  0  0  0  0  0  0  0
    1.4599    0.1344    0.6190 C   0  0  1  0  0  0  0  0  0  0  0  0
    1.1102    0.9101    1.9068 C   0  0  0  0  0  0  0  0  0  0  0  0
   -2.0236   -0.8506   -0.5470 C   0  0  1  0  0  0  0  0  0  0  0  0
    0.2827    0.0659   -0.3517 C   0  0  0  0  0  0  0  0  0  0  0  0
    0.6387    2.3309    1.5824 C   0  0  0  0  0  0  0  0  0  0  0  0
    2.2672    0.9625    2.9102 C   0  0  0  0  0  0  0  0  0  0  0  0
   -2.6936   -2.1578   -0.0945 C   0  0  0  0  0  0  0  0  0  0  0  0
   -2.9602    0.3331   -0.4161 C   0  0  0  0  0  0  0  0  0  0  0  0
    3.7510   -0.0093   -0.3455 C   0  0  0  0  0  0  0  0  0  0  0  0
   -2.9821    1.0472    0.7685 C   0  0  0  0  0  0  0  0  0  0  0  0
   -3.7705    0.6727   -1.4843 C   0  0  0  0  0  0  0  0  0  0  0  0
   -1.7772   -3.3600   -0.2010 C   0  0  0  0  0  0  0  0  0  0  0  0
   -3.8436    2.1377    0.8889 C   0  0  0  0  0  0  0  0  0  0  0  0
   -4.6319    1.7631   -1.3641 C   0  0  0  0  0  0  0  0  0  0  0  0
    6.0162    0.5234   -0.8038 C   0  0  0  0  0  0  0  0  0  0  0  0
   -4.6686    2.4956   -0.1774 C   0  0  0  0  0  0  0  0  0  0  0  0
    6.3227    0.6779    0.6781 C   0  0  0  0  0  0  0  0  0  0  0  0
    6.8493    1.4683   -1.6564 C   0  0  0  0  0  0  0  0  0  0  0  0
   -1.3368   -5.4597    0.7983 C   0  0  0  0  0  0  0  0  0  0  0  0
    1.6993   -0.9005    0.8966 H   0  0  0  0  0  0  0  0  0  0  0  0
    0.2789    0.4037    2.4125 H   0  0  0  0  0  0  0  0  0  0  0  0
   -1.7394   -0.9519   -1.6033 H   0  0  0  0  0  0  0  0  0  0  0  0
   -0.7457   -0.9633    1.1377 H   0  0  0  0  0  0  0  0  0  0  0  0
    1.4351    2.9283    1.1263 H   0  0  0  0  0  0  0  0  0  0  0  0
    0.3292    2.8458    2.4990 H   0  0  0  0  0  0  0  0  0  0  0  0
   -0.2199    2.3376    0.9056 H   0  0  0  0  0  0  0  0  0  0  0  0
    1.9509    1.4462    3.8405 H   0  0  0  0  0  0  0  0  0  0  0  0
    3.1206    1.5231    2.5146 H   0  0  0  0  0  0  0  0  0  0  0  0
    2.6086   -0.0482    3.1573 H   0  0  0  0  0  0  0  0  0  0  0  0
    2.5166    1.6347   -0.4482 H   0  0  0  0  0  0  0  0  0  0  0  0
   -3.0082   -2.0572    0.9529 H   0  0  0  0  0  0  0  0  0  0  0  0
   -3.5889   -2.3646   -0.6922 H   0  0  0  0  0  0  0  0  0  0  0  0
   -2.3668    0.7798    1.6220 H   0  0  0  0  0  0  0  0  0  0  0  0
   -3.7501    0.1071   -2.4111 H   0  0  0  0  0  0  0  0  0  0  0  0
   -3.8643    2.6969    1.8209 H   0  0  0  0  0  0  0  0  0  0  0  0
   -5.2692    2.0304   -2.2031 H   0  0  0  0  0  0  0  0  0  0  0  0
    6.2359   -0.5028   -1.1239 H   0  0  0  0  0  0  0  0  0  0  0  0
    7.3982    0.5919    0.8648 H   0  0  0  0  0  0  0  0  0  0  0  0
    5.8261   -0.0812    1.2897 H   0  0  0  0  0  0  0  0  0  0  0  0
    5.9847    1.6528    1.0473 H   0  0  0  0  0  0  0  0  0  0  0  0
    7.9201    1.2828   -1.5290 H   0  0  0  0  0  0  0  0  0  0  0  0
    6.5967    1.3485   -2.7155 H   0  0  0  0  0  0  0  0  0  0  0  0
    6.6400    2.5126   -1.3999 H   0  0  0  0  0  0  0  0  0  0  0  0
   -1.4245   -6.0030   -0.1474 H   0  0  0  0  0  0  0  0  0  0  0  0
   -0.2914   -5.2142    1.0081 H   0  0  0  0  0  0  0  0  0  0  0  0
   -1.7170   -6.0935    1.6038 H   0  0  0  0  0  0  0  0  0  0  0  0
  1 24  1  0  0  0  0
  2 12  2  0  0  0  0
  3 17  1  0  0  0  0
  3 23  1  0  0  0  0
  4 20  1  0  0  0  0
  4 27  1  0  0  0  0
  5 17  2  0  0  0  0
  6 20  2  0  0  0  0
  7 11  1  0  0  0  0
  7 12  1  0  0  0  0
  7 31  1  0  0  0  0
  8  9  1  0  0  0  0
  8 17  1  0  0  0  0
  8 38  1  0  0  0  0
  9 10  1  0  0  0  0
  9 12  1  0  0  0  0
  9 28  1  0  0  0  0
 10 13  1  0  0  0  0
 10 14  1  0  0  0  0
 10 29  1  0  0  0  0
 11 15  1  0  0  0  0
 11 16  1  0  0  0  0
 11 30  1  0  0  0  0
 13 32  1  0  0  0  0
 13 33  1  0  0  0  0
 13 34  1  0  0  0  0
 14 35  1  0  0  0  0
 14 36  1  0  0  0  0
 14 37  1  0  0  0  0
 15 20  1  0  0  0  0
 15 39  1  0  0  0  0
 15 40  1  0  0  0  0
 16 18  2  0  0  0  0
 16 19  1  0  0  0  0
 18 21  1  0  0  0  0
 18 41  1  0  0  0  0
 19 22  2  0  0  0  0
 19 42  1  0  0  0  0
 21 24  2  0  0  0  0
 21 43  1  0  0  0  0
 22 24  1  0  0  0  0
 22 44  1  0  0  0  0
 23 25  1  0  0  0  0
 23 26  1  0  0  0  0
 23 45  1  0  0  0  0
 25 46  1  0  0  0  0
 25 47  1  0  0  0  0
 25 48  1  0  0  0  0
 26 49  1  0  0  0  0
 26 50  1  0  0  0  0
 26 51  1  0  0  0  0
 27 52  1  0  0  0  0
 27 53  1  0  0  0  0
 27 54  1  0  0  0  0
M  END
> <PUBCHEM_COMPOUND_CID>
11338509

> <PUBCHEM_CONFORMER_RMSD>
1.2

> <PUBCHEM_CONFORMER_DIVERSEORDER>
1
3
120
56
123
108
32
105
59
127
40
142
29
51
46
68
124
130
141
85
145
137
93
143
79
31
25
107
28
119
136
111
50
24
133
47
100
70
6
48
128
74
42
54
112
90
33
44
86
139
115
96
104
72
63
67
132
53
92
81
13
8
134
39
121
30
77
131
109
55
43
60
82
73
21
23
138
116
144
66
101
88
18
65
36
35
84
58
99
57
69
113
102
20
52
80
61
87
110
95
41
22
34
135
97
103
140
89
15
125
5
62
10
106
64
17
114
83
12
7
19
94
122
2
75
98
37
38
76
71
27
11
126
9
78
26
129
14
117
49
118
45
16
91
4

> <PUBCHEM_MMFF94_PARTIAL_CHARGES>
28
1 -0.18
11 0.44
12 0.57
15 0.06
16 -0.14
17 0.78
18 -0.15
19 -0.15
2 -0.57
20 0.66
21 -0.15
22 -0.15
23 0.28
24 0.18
27 0.28
3 -0.43
31 0.37
38 0.37
4 -0.43
41 0.15
42 0.15
43 0.15
44 0.15
5 -0.57
6 -0.57
7 -0.73
8 -0.73
9 0.36

> <PUBCHEM_EFFECTIVE_ROTOR_COUNT>
12

> <PUBCHEM_PHARMACOPHORE_FEATURES>
8
1 2 acceptor
1 5 acceptor
1 6 acceptor
1 7 donor
1 8 donor
3 10 13 14 hydrophobe
3 23 25 26 hydrophobe
6 16 18 19 21 22 24 rings

> <PUBCHEM_HEAVY_ATOM_COUNT>
27

> <PUBCHEM_ATOM_DEF_STEREO_COUNT>
1

> <PUBCHEM_ATOM_UDEF_STEREO_COUNT>
1

> <PUBCHEM_BOND_DEF_STEREO_COUNT>
0

> <PUBCHEM_BOND_UDEF_STEREO_COUNT>
0

> <PUBCHEM_ISOTOPIC_ATOM_COUNT>
0

> <PUBCHEM_COMPONENT_COUNT>
1

> <PUBCHEM_CACTVS_TAUTO_COUNT>
4

> <PUBCHEM_CONFORMER_ID>
00AD030D00000001

> <PUBCHEM_MMFF94_ENERGY>
55.2015

> <PUBCHEM_FEATURE_SELFOVERLAP>
40.596

> <PUBCHEM_SHAPE_FINGERPRINT>
10165383 225 18341623581779688193
105312 117 18410015420480984927
10675989 125 17982456988273543724
107951 10 18341334418394760575
10906281 52 17774455892557533688
11796584 16 18411698786633810666
12293681 160 17917148278201059465
12549972 3 17845361309967848754
12788726 201 17702951297397513856
12895836 83 18334577931957843284
13540713 4 17773305949640085584
13690498 29 18055923344712542510
13941206 138 18267872683398620985
14251757 5 18341898502029650064
17349148 13 12463285946974240612
18608769 82 18342457080328615791
21033648 29 18341040857427870089
21120745 212 17757576396454104783
23559900 14 18051121785553973604
350125 39 18411421726587853779
3759504 43 18410294700940552863
4015057 19 16773790433143629488
4058900 60 18195817262888886689
633830 44 16515404092925844764
77188 2 17472987671718231935

> <PUBCHEM_SHAPE_MULTIPOLES>
518.21
13.46
5.04
1.75
17.79
9.24
-0.8
-13.59
5.34
-7.94
-1.13
1.32
-0.84
0.03

> <PUBCHEM_SHAPE_SELFOVERLAP>
1037.572

> <PUBCHEM_SHAPE_VOLUME>
306.3

> <PUBCHEM_COORDINATE_TYPE>
2
5
10

$$$$
