11488729
  -OEChem-07202400443D

 43 44  0     0  0  0  0  0  0999 V2000
    0.1488   -0.6474    0.2287 Cl  0  0  0  0  0  0  0  0  0  0  0  0
    2.8452    4.0521    0.6934 Cl  0  0  0  0  0  0  0  0  0  0  0  0
    9.0510   -2.6256   -0.6826 Cl  0  0  0  0  0  0  0  0  0  0  0  0
    6.5722   -2.3163   -2.2431 Cl  0  0  0  0  0  0  0  0  0  0  0  0
   -6.7689   -3.0643   -0.1871 F   0  0  0  0  0  0  0  0  0  0  0  0
   -6.4185   -2.3121    1.8167 F   0  0  0  0  0  0  0  0  0  0  0  0
   -7.8125   -1.2851    0.5011 F   0  0  0  0  0  0  0  0  0  0  0  0
    0.4525    2.3233    0.2415 O   0  0  0  0  0  0  0  0  0  0  0  0
   -2.4963    1.4147   -1.3083 O   0  0  0  0  0  0  0  0  0  0  0  0
    5.1227   -0.4536    1.2252 O   0  0  0  0  0  0  0  0  0  0  0  0
   -4.2078    0.9887    0.1998 N   0  0  0  0  0  0  0  0  0  0  0  0
   -1.1452    3.4036   -1.1745 C   0  0  0  0  0  0  0  0  0  0  0  0
    0.1589    2.6253   -1.1154 C   0  0  0  0  0  0  0  0  0  0  0  0
   -2.3042    2.6195   -0.5792 C   0  0  0  0  0  0  0  0  0  0  0  0
    1.6121    1.6340    0.4850 C   0  0  0  0  0  0  0  0  0  0  0  0
    1.6030    0.2392    0.5061 C   0  0  0  0  0  0  0  0  0  0  0  0
    2.8009    2.3271    0.7123 C   0  0  0  0  0  0  0  0  0  0  0  0
   -3.4981    0.5845   -0.8775 C   0  0  0  0  0  0  0  0  0  0  0  0
    3.9716    0.2309    0.9819 C   0  0  0  0  0  0  0  0  0  0  0  0
    2.7827   -0.4622    0.7546 C   0  0  0  0  0  0  0  0  0  0  0  0
    3.9807    1.6257    0.9609 C   0  0  0  0  0  0  0  0  0  0  0  0
   -3.7253   -0.6026   -1.5551 C   0  0  0  0  0  0  0  0  0  0  0  0
   -5.4988   -1.0463    0.0076 C   0  0  0  0  0  0  0  0  0  0  0  0
   -4.7465   -1.4279   -1.0978 C   0  0  0  0  0  0  0  0  0  0  0  0
   -5.1924    0.1605    0.6154 C   0  0  0  0  0  0  0  0  0  0  0  0
   -6.5963   -1.9079    0.5224 C   0  0  0  0  0  0  0  0  0  0  0  0
    5.2513   -1.7416    0.6251 C   0  0  0  0  0  0  0  0  0  0  0  0
    6.7067   -2.0407    0.4458 C   0  0  0  0  0  0  0  0  0  0  0  0
    7.3505   -2.2958   -0.7029 C   0  0  0  0  0  0  0  0  0  0  0  0
   -1.0384    4.3439   -0.6215 H   0  0  0  0  0  0  0  0  0  0  0  0
   -1.3611    3.6465   -2.2212 H   0  0  0  0  0  0  0  0  0  0  0  0
    0.9607    3.2361   -1.5463 H   0  0  0  0  0  0  0  0  0  0  0  0
    0.0860    1.7042   -1.7050 H   0  0  0  0  0  0  0  0  0  0  0  0
   -3.2093    3.2366   -0.6447 H   0  0  0  0  0  0  0  0  0  0  0  0
   -2.1052    2.4003    0.4771 H   0  0  0  0  0  0  0  0  0  0  0  0
    2.7419   -1.5474    0.7942 H   0  0  0  0  0  0  0  0  0  0  0  0
    4.9128    2.1568    1.1392 H   0  0  0  0  0  0  0  0  0  0  0  0
   -3.1285   -0.8859   -2.4152 H   0  0  0  0  0  0  0  0  0  0  0  0
   -4.9419   -2.3638   -1.6134 H   0  0  0  0  0  0  0  0  0  0  0  0
   -5.7445    0.5106    1.4822 H   0  0  0  0  0  0  0  0  0  0  0  0
    4.7247   -1.7911   -0.3338 H   0  0  0  0  0  0  0  0  0  0  0  0
    4.8232   -2.4918    1.3003 H   0  0  0  0  0  0  0  0  0  0  0  0
    7.2804   -2.0512    1.3722 H   0  0  0  0  0  0  0  0  0  0  0  0
  1 16  1  0  0  0  0
  2 17  1  0  0  0  0
  3 29  1  0  0  0  0
  4 29  1  0  0  0  0
  5 26  1  0  0  0  0
  6 26  1  0  0  0  0
  7 26  1  0  0  0  0
  8 13  1  0  0  0  0
  8 15  1  0  0  0  0
  9 14  1  0  0  0  0
  9 18  1  0  0  0  0
 10 19  1  0  0  0  0
 10 27  1  0  0  0  0
 11 18  2  0  0  0  0
 11 25  1  0  0  0  0
 12 13  1  0  0  0  0
 12 14  1  0  0  0  0
 12 30  1  0  0  0  0
 12 31  1  0  0  0  0
 13 32  1  0  0  0  0
 13 33  1  0  0  0  0
 14 34  1  0  0  0  0
 14 35  1  0  0  0  0
 15 16  2  0  0  0  0
 15 17  1  0  0  0  0
 16 20  1  0  0  0  0
 17 21  2  0  0  0  0
 18 22  1  0  0  0  0
 19 20  2  0  0  0  0
 19 21  1  0  0  0  0
 20 36  1  0  0  0  0
 21 37  1  0  0  0  0
 22 24  2  0  0  0  0
 22 38  1  0  0  0  0
 23 24  1  0  0  0  0
 23 25  2  0  0  0  0
 23 26  1  0  0  0  0
 24 39  1  0  0  0  0
 25 40  1  0  0  0  0
 27 28  1  0  0  0  0
 27 41  1  0  0  0  0
 27 42  1  0  0  0  0
 28 29  2  0  0  0  0
 28 43  1  0  0  0  0
M  END
> <PUBCHEM_COMPOUND_CID>
11488729

> <PUBCHEM_CONFORMER_RMSD>
1.2

> <PUBCHEM_CONFORMER_DIVERSEORDER>
1
59
9
3
11
55
29
61
8
49
74
38
13
34
72
71
15
67
35
54
33
47
68
19
45
69
42
23
7
20
22
41
52
53
12
65
58
24
30
31
57
5
66
64
60
16
73
56
4
27
48
46
6
21
63
18
2
50
17
44
14
51
28
70
37
36
62
39
32
10
40
25
26
43

> <PUBCHEM_MMFF94_PARTIAL_CHARGES>
34
1 -0.18
10 -0.36
11 -0.62
13 0.28
14 0.28
15 0.08
16 0.18
17 0.18
18 0.39
19 0.08
2 -0.18
20 -0.15
21 -0.15
22 -0.15
23 -0.14
24 -0.15
25 0.16
26 1.16
27 0.42
28 -0.29
29 0.28
3 -0.14
36 0.15
37 0.15
38 0.15
39 0.15
4 -0.14
40 0.15
43 0.15
5 -0.34
6 -0.34
7 -0.34
8 -0.36
9 -0.36

> <PUBCHEM_EFFECTIVE_ROTOR_COUNT>
10

> <PUBCHEM_PHARMACOPHORE_FEATURES>
4
1 10 acceptor
1 8 acceptor
6 11 18 22 23 24 25 rings
6 15 16 17 19 20 21 rings

> <PUBCHEM_HEAVY_ATOM_COUNT>
29

> <PUBCHEM_ATOM_DEF_STEREO_COUNT>
0

> <PUBCHEM_ATOM_UDEF_STEREO_COUNT>
0

> <PUBCHEM_BOND_DEF_STEREO_COUNT>
0

> <PUBCHEM_BOND_UDEF_STEREO_COUNT>
0

> <PUBCHEM_ISOTOPIC_ATOM_COUNT>
0

> <PUBCHEM_COMPONENT_COUNT>
1

> <PUBCHEM_CACTVS_TAUTO_COUNT>
1

> <PUBCHEM_CONFORMER_ID>
00AF4DD900000001

> <PUBCHEM_MMFF94_ENERGY>
74.7763

> <PUBCHEM_FEATURE_SELFOVERLAP>
20.297

> <PUBCHEM_SHAPE_FINGERPRINT>
10076449 9 18341898464176511754
10864689 126 18113891668314638131
117089 54 18408608054087561219
12342043 65 18341604911161512360
12422481 6 17774997990344169102
12623949 98 18412546539514731516
12633257 1 16629962274033471577
12645989 146 18408885174300178459
13008946 119 17484503884205726280
1361 87 17095813225902366867
13673619 4 18411416194263697276
13690498 29 18261951830669216636
13782708 43 18411695491317305970
14117953 113 18336536163126800887
14123256 34 18410854348111687170
14251764 30 18335419058273645863
15064986 96 17346041052666577047
15510800 12 18341889662970754447
16120349 21 18409168784608526785
21095086 4 18410014333881171466
21267235 1 18409728452183086466
21344244 246 18260274071169073412
21585481 104 14635694304016330871
21682296 61 18335418011150841251
23424782 7 18411415091300945664
24771750 20 18266175227601444900
25269216 80 15719114648345200973
255183 451 18407761447804822468
3862424 121 17459488786795675691
393628 179 11314319368866602550
4330586 98 17241065274594624858
474113 269 18200581619288111719
484989 97 18409729531148305522
5104073 3 18338220640193893065
54039377 194 18412266112715723790
56633871 153 18340480188323304047
636775 8 18340492154534902230
999808 66 17774716443107388222

> <PUBCHEM_SHAPE_MULTIPOLES>
559.88
23.03
4.44
1.47
6.43
2.81
-0.43
-31.32
-0.36
1.55
-0.47
0.47
-0.33
3.59

> <PUBCHEM_SHAPE_SELFOVERLAP>
1138.195

> <PUBCHEM_SHAPE_VOLUME>
330.3

> <PUBCHEM_COORDINATE_TYPE>
2
5
10

$$$$
