11493665
  -OEChem-07202400573D

 44 45  0     0  0  0  0  0  0999 V2000
    3.5020   -0.2660   -0.5899 S   0  0  0  0  0  0  0  0  0  0  0  0
   -1.2685    2.1679   -0.9585 O   0  0  0  0  0  0  0  0  0  0  0  0
    2.3409   -1.8127    1.1542 O   0  0  0  0  0  0  0  0  0  0  0  0
    0.6860    1.0622   -0.2579 N   0  0  0  0  0  0  0  0  0  0  0  0
    0.9241   -0.2176    0.2474 N   0  0  0  0  0  0  0  0  0  0  0  0
   -0.4773   -2.1388    0.8230 N   0  0  0  0  0  0  0  0  0  0  0  0
    1.4825    2.1866    0.1822 C   0  0  0  0  0  0  0  0  0  0  0  0
   -1.2974   -0.0873   -0.1343 C   0  0  0  0  0  0  0  0  0  0  0  0
   -0.6631    1.1910   -0.5483 C   0  0  0  0  0  0  0  0  0  0  0  0
   -0.3062   -0.8642    0.3569 C   0  0  0  0  0  0  0  0  0  0  0  0
   -2.7271   -0.3732   -0.2525 C   0  0  0  0  0  0  0  0  0  0  0  0
    0.9469    2.7313    1.5000 C   0  0  0  0  0  0  0  0  0  0  0  0
    1.5174    3.2692   -0.8893 C   0  0  0  0  0  0  0  0  0  0  0  0
   -3.6271   -0.0610    0.7742 C   0  0  0  0  0  0  0  0  0  0  0  0
    2.1627   -0.8460    0.4154 C   0  0  0  0  0  0  0  0  0  0  0  0
   -3.2063   -0.9741   -1.4227 C   0  0  0  0  0  0  0  0  0  0  0  0
   -4.9852   -0.3458    0.6325 C   0  0  0  0  0  0  0  0  0  0  0  0
   -3.1605    0.5809    2.0412 C   0  0  0  0  0  0  0  0  0  0  0  0
   -4.5644   -1.2588   -1.5645 C   0  0  0  0  0  0  0  0  0  0  0  0
   -5.4538   -0.9448   -0.5368 C   0  0  0  0  0  0  0  0  0  0  0  0
    4.8398   -1.3434   -0.0328 C   0  0  0  0  0  0  0  0  0  0  0  0
    6.1009   -1.0216   -0.7682 C   0  0  0  0  0  0  0  0  0  0  0  0
    7.2339   -0.6338   -0.1714 C   0  0  0  0  0  0  0  0  0  0  0  0
    2.5113    1.8873    0.3719 H   0  0  0  0  0  0  0  0  0  0  0  0
    1.5756    3.5521    1.8620 H   0  0  0  0  0  0  0  0  0  0  0  0
   -0.0745    3.1151    1.4034 H   0  0  0  0  0  0  0  0  0  0  0  0
    0.9360    1.9539    2.2720 H   0  0  0  0  0  0  0  0  0  0  0  0
    1.8096    2.8534   -1.8597 H   0  0  0  0  0  0  0  0  0  0  0  0
    2.2501    4.0395   -0.6233 H   0  0  0  0  0  0  0  0  0  0  0  0
    0.5566    3.7771   -1.0134 H   0  0  0  0  0  0  0  0  0  0  0  0
   -2.5279   -1.2260   -2.2349 H   0  0  0  0  0  0  0  0  0  0  0  0
   -1.3999   -2.5543    0.8454 H   0  0  0  0  0  0  0  0  0  0  0  0
    0.3251   -2.6646    1.1440 H   0  0  0  0  0  0  0  0  0  0  0  0
   -5.6927   -0.1084    1.4226 H   0  0  0  0  0  0  0  0  0  0  0  0
   -3.9926    0.7845    2.7242 H   0  0  0  0  0  0  0  0  0  0  0  0
   -2.4612   -0.0745    2.5706 H   0  0  0  0  0  0  0  0  0  0  0  0
   -2.6749    1.5402    1.8334 H   0  0  0  0  0  0  0  0  0  0  0  0
   -4.9296   -1.7251   -2.4750 H   0  0  0  0  0  0  0  0  0  0  0  0
   -6.5112   -1.1668   -0.6474 H   0  0  0  0  0  0  0  0  0  0  0  0
    4.9712   -1.2263    1.0483 H   0  0  0  0  0  0  0  0  0  0  0  0
    4.5723   -2.3867   -0.2307 H   0  0  0  0  0  0  0  0  0  0  0  0
    6.1022   -1.1379   -1.8496 H   0  0  0  0  0  0  0  0  0  0  0  0
    8.1216   -0.4281   -0.7594 H   0  0  0  0  0  0  0  0  0  0  0  0
    7.2970   -0.5145    0.9046 H   0  0  0  0  0  0  0  0  0  0  0  0
  1 15  1  0  0  0  0
  1 21  1  0  0  0  0
  2  9  2  0  0  0  0
  3 15  2  0  0  0  0
  4  5  1  0  0  0  0
  4  7  1  0  0  0  0
  4  9  1  0  0  0  0
  5 10  1  0  0  0  0
  5 15  1  0  0  0  0
  6 10  1  0  0  0  0
  6 32  1  0  0  0  0
  6 33  1  0  0  0  0
  7 12  1  0  0  0  0
  7 13  1  0  0  0  0
  7 24  1  0  0  0  0
  8  9  1  0  0  0  0
  8 10  2  0  0  0  0
  8 11  1  0  0  0  0
 11 14  1  0  0  0  0
 11 16  2  0  0  0  0
 12 25  1  0  0  0  0
 12 26  1  0  0  0  0
 12 27  1  0  0  0  0
 13 28  1  0  0  0  0
 13 29  1  0  0  0  0
 13 30  1  0  0  0  0
 14 17  2  0  0  0  0
 14 18  1  0  0  0  0
 16 19  1  0  0  0  0
 16 31  1  0  0  0  0
 17 20  1  0  0  0  0
 17 34  1  0  0  0  0
 18 35  1  0  0  0  0
 18 36  1  0  0  0  0
 18 37  1  0  0  0  0
 19 20  2  0  0  0  0
 19 38  1  0  0  0  0
 20 39  1  0  0  0  0
 21 22  1  0  0  0  0
 21 40  1  0  0  0  0
 21 41  1  0  0  0  0
 22 23  2  0  0  0  0
 22 42  1  0  0  0  0
 23 43  1  0  0  0  0
 23 44  1  0  0  0  0
M  END
> <PUBCHEM_COMPOUND_CID>
11493665

> <PUBCHEM_CONFORMER_RMSD>
0.8

> <PUBCHEM_CONFORMER_DIVERSEORDER>
17
32
8
53
46
28
50
38
58
60
49
21
55
56
12
35
23
7
57
19
2
20
36
59
34
39
37
47
44
33
54
4
18
24
14
27
15
52
22
25
61
16
45
26
9
43
6
42
1
48
10
29
5
13
41
40
3
51
11
31
30

> <PUBCHEM_MMFF94_PARTIAL_CHARGES>
30
1 -0.37
10 0.21
11 0.03
14 -0.14
15 0.77
16 -0.15
17 -0.15
18 0.14
19 -0.15
2 -0.57
20 -0.15
21 0.37
22 -0.29
23 -0.3
3 -0.57
31 0.15
32 0.4
33 0.4
34 0.15
38 0.15
39 0.15
4 -0.36
42 0.15
43 0.15
44 0.15
5 -0.17
6 -0.9
7 0.3
8 -0.01
9 0.62

> <PUBCHEM_EFFECTIVE_ROTOR_COUNT>
6

> <PUBCHEM_PHARMACOPHORE_FEATURES>
7
1 2 acceptor
1 23 hydrophobe
1 6 cation
1 6 donor
3 7 12 13 hydrophobe
5 4 5 8 9 10 rings
6 11 14 16 17 19 20 rings

> <PUBCHEM_HEAVY_ATOM_COUNT>
23

> <PUBCHEM_ATOM_DEF_STEREO_COUNT>
0

> <PUBCHEM_ATOM_UDEF_STEREO_COUNT>
0

> <PUBCHEM_BOND_DEF_STEREO_COUNT>
0

> <PUBCHEM_BOND_UDEF_STEREO_COUNT>
0

> <PUBCHEM_ISOTOPIC_ATOM_COUNT>
0

> <PUBCHEM_COMPONENT_COUNT>
1

> <PUBCHEM_CACTVS_TAUTO_COUNT>
3

> <PUBCHEM_CONFORMER_ID>
00AF612100000011

> <PUBCHEM_MMFF94_ENERGY>
72.3968

> <PUBCHEM_FEATURE_SELFOVERLAP>
35.52

> <PUBCHEM_SHAPE_FINGERPRINT>
10366900 7 17603299358636916355
11578080 2 17842520121200219321
12011746 2 18259702298165382667
12236239 1 18130508621835863375
12516196 113 18343863316803099546
12553582 1 18335973203544311746
13009979 54 18059859519146204003
13140716 1 18117553157207471426
13288520 33 17989767791505583247
13590594 115 18412832369198299321
13862211 1 18335699425745094434
14739800 52 16629110177516354984
16945 1 18259980504634914968
17492 89 17911792780675158143
1813 80 18341625775821765260
18186145 218 18263071262550028615
18222031 100 18342726416936613114
18681886 176 18060127778213561475
200 152 18186801348776048318
20612939 158 18335985371191819396
21236236 1 18335985255264670892
21267235 1 18411139169332314031
21641784 216 17822869563261907852
22182313 1 18117248480870766308
2255824 54 18337388352487073015
22950370 63 18201158763301323998
23352939 185 18412550907702167216
23402539 116 18340487773061260926
23493267 7 15936403442765737845
23522609 53 18056227763810905344
23557571 272 18271812264200771814
23559900 14 18263358260290276864
25147074 1 18200891646152598041
283562 15 18264772060935320736
312423 11 18130234873378600913
335352 9 18410289195356839293
474 4 17978503458378276377
5104073 3 17559965496969123091
57527295 17 17677311854748605755
77492 1 18130506444366494199
9971528 1 18272644688517661440
9981440 41 17192894789170066505

> <PUBCHEM_SHAPE_MULTIPOLES>
450.5
12.59
2.58
1.37
12.57
2.45
0.2
-8.09
-1.98
1.48
-0.1
-1.15
0.19
-0.84

> <PUBCHEM_SHAPE_SELFOVERLAP>
930.925

> <PUBCHEM_SHAPE_VOLUME>
261.5

> <PUBCHEM_COORDINATE_TYPE>
2
5
10

$$$$
