11571555
  -OEChem-07202406373D

 42 44  0     0  0  0  0  0  0999 V2000
    1.8780   -0.0405   -1.6457 S   0  0  0  0  0  0  0  0  0  0  0  0
    3.9667   -2.6656    1.2744 F   0  0  0  0  0  0  0  0  0  0  0  0
    2.0777   -2.4758    0.2257 F   0  0  0  0  0  0  0  0  0  0  0  0
    3.9465   -2.1609   -0.8406 F   0  0  0  0  0  0  0  0  0  0  0  0
    2.0576    2.7389   -0.5718 O   0  0  0  0  0  0  0  0  0  0  0  0
    1.2208    1.1240   -2.2082 O   0  0  0  0  0  0  0  0  0  0  0  0
    2.8644   -0.7720   -2.4176 O   0  0  0  0  0  0  0  0  0  0  0  0
   -4.0145   -2.5979    0.8355 O   0  0  0  0  0  0  0  0  0  0  0  0
   -5.3894    1.8816    0.4767 O   0  0  0  0  0  0  0  0  0  0  0  0
    0.7019   -1.1251   -1.0437 N   0  0  0  0  0  0  0  0  0  0  0  0
   -2.5702   -0.8875    0.0281 N   0  0  0  0  0  0  0  0  0  0  0  0
   -1.4754   -1.6532   -0.2039 N   0  0  0  0  0  0  0  0  0  0  0  0
   -1.0445    0.5176   -0.7513 N   0  0  0  0  0  0  0  0  0  0  0  0
    3.2354    2.2560    1.3539 N   0  0  0  0  0  0  0  0  0  0  0  0
   -3.2287    1.4163   -0.1723 N   0  0  0  0  0  0  0  0  0  0  0  0
    2.6609    0.4706   -0.1439 C   0  0  0  0  0  0  0  0  0  0  0  0
    3.2763   -0.4551    0.6742 C   0  0  0  0  0  0  0  0  0  0  0  0
    2.6591    1.7966    0.2206 C   0  0  0  0  0  0  0  0  0  0  0  0
   -0.6010   -0.7637   -0.6661 C   0  0  0  0  0  0  0  0  0  0  0  0
   -2.2850    0.4397   -0.3137 C   0  0  0  0  0  0  0  0  0  0  0  0
    3.8802   -0.0208    1.8490 C   0  0  0  0  0  0  0  0  0  0  0  0
    3.3148   -1.9105    0.3424 C   0  0  0  0  0  0  0  0  0  0  0  0
   -3.8196   -1.2689    0.5241 C   0  0  0  0  0  0  0  0  0  0  0  0
    3.8324    1.3328    2.1408 C   0  0  0  0  0  0  0  0  0  0  0  0
   -4.7788   -0.3462    0.6808 C   0  0  0  0  0  0  0  0  0  0  0  0
   -4.3689    1.0174    0.2895 C   0  0  0  0  0  0  0  0  0  0  0  0
    2.1057    4.0851   -0.1143 C   0  0  0  0  0  0  0  0  0  0  0  0
   -5.0692   -3.1448    0.0676 C   0  0  0  0  0  0  0  0  0  0  0  0
   -5.0334    3.2117    0.1099 C   0  0  0  0  0  0  0  0  0  0  0  0
    0.8962   -2.1326   -1.0886 H   0  0  0  0  0  0  0  0  0  0  0  0
    4.3778   -0.7026    2.5298 H   0  0  0  0  0  0  0  0  0  0  0  0
    4.2882    1.7228    3.0450 H   0  0  0  0  0  0  0  0  0  0  0  0
   -5.7685   -0.5423    1.0687 H   0  0  0  0  0  0  0  0  0  0  0  0
    1.5869    4.7077   -0.8494 H   0  0  0  0  0  0  0  0  0  0  0  0
    3.1393    4.4402   -0.0430 H   0  0  0  0  0  0  0  0  0  0  0  0
    1.5868    4.1940    0.8440 H   0  0  0  0  0  0  0  0  0  0  0  0
   -5.0480   -4.2318    0.1941 H   0  0  0  0  0  0  0  0  0  0  0  0
   -4.9476   -2.9335   -1.0014 H   0  0  0  0  0  0  0  0  0  0  0  0
   -6.0454   -2.7942    0.4184 H   0  0  0  0  0  0  0  0  0  0  0  0
   -4.2167    3.5922    0.7331 H   0  0  0  0  0  0  0  0  0  0  0  0
   -5.9060    3.8473    0.2895 H   0  0  0  0  0  0  0  0  0  0  0  0
   -4.7918    3.2802   -0.9564 H   0  0  0  0  0  0  0  0  0  0  0  0
  1  6  2  0  0  0  0
  1  7  2  0  0  0  0
  1 10  1  0  0  0  0
  1 16  1  0  0  0  0
  2 22  1  0  0  0  0
  3 22  1  0  0  0  0
  4 22  1  0  0  0  0
  5 18  1  0  0  0  0
  5 27  1  0  0  0  0
  8 23  1  0  0  0  0
  8 28  1  0  0  0  0
  9 26  1  0  0  0  0
  9 29  1  0  0  0  0
 10 19  1  0  0  0  0
 10 30  1  0  0  0  0
 11 12  1  0  0  0  0
 11 20  1  0  0  0  0
 11 23  1  0  0  0  0
 12 19  2  0  0  0  0
 13 19  1  0  0  0  0
 13 20  2  0  0  0  0
 14 18  2  0  0  0  0
 14 24  1  0  0  0  0
 15 20  1  0  0  0  0
 15 26  2  0  0  0  0
 16 17  2  0  0  0  0
 16 18  1  0  0  0  0
 17 21  1  0  0  0  0
 17 22  1  0  0  0  0
 21 24  2  0  0  0  0
 21 31  1  0  0  0  0
 23 25  2  0  0  0  0
 24 32  1  0  0  0  0
 25 26  1  0  0  0  0
 25 33  1  0  0  0  0
 27 34  1  0  0  0  0
 27 35  1  0  0  0  0
 27 36  1  0  0  0  0
 28 37  1  0  0  0  0
 28 38  1  0  0  0  0
 28 39  1  0  0  0  0
 29 40  1  0  0  0  0
 29 41  1  0  0  0  0
 29 42  1  0  0  0  0
M  END
> <PUBCHEM_COMPOUND_CID>
11571555

> <PUBCHEM_CONFORMER_RMSD>
0.8

> <PUBCHEM_CONFORMER_DIVERSEORDER>
1
25
68
56
62
22
6
83
79
31
50
61
30
27
11
71
18
45
20
52
67
43
21
59
63
72
80
19
23
5
12
29
51
78
35
28
55
64
82
84
33
15
76
86
57
74
70
65
85
32
41
34
39
53
38
14
8
54
60
26
58
13
16
10
24
36
73
49
69
47
48
37
7
4
44
40
81
75
2
17
3
46
77
9
42
66

> <PUBCHEM_MMFF94_PARTIAL_CHARGES>
33
1 1.45
10 -0.7
11 0.6
12 -0.71
13 -0.57
14 -0.62
15 -0.58
16 -0.01
17 -0.14
18 0.39
19 0.66
2 -0.34
20 0.31
21 -0.15
22 1.16
23 0.05
24 0.16
25 -0.14
26 0.59
27 0.28
28 0.28
29 0.28
3 -0.34
30 0.42
31 0.15
32 0.15
33 0.15
4 -0.34
5 -0.36
6 -0.65
7 -0.65
8 -0.36
9 -0.43

> <PUBCHEM_EFFECTIVE_ROTOR_COUNT>
7

> <PUBCHEM_PHARMACOPHORE_FEATURES>
8
1 10 donor
1 6 acceptor
1 7 acceptor
1 8 acceptor
4 11 13 15 20 cation
5 11 12 13 19 20 rings
6 11 15 20 23 25 26 rings
6 14 16 17 18 21 24 rings

> <PUBCHEM_HEAVY_ATOM_COUNT>
29

> <PUBCHEM_ATOM_DEF_STEREO_COUNT>
0

> <PUBCHEM_ATOM_UDEF_STEREO_COUNT>
0

> <PUBCHEM_BOND_DEF_STEREO_COUNT>
0

> <PUBCHEM_BOND_UDEF_STEREO_COUNT>
0

> <PUBCHEM_ISOTOPIC_ATOM_COUNT>
0

> <PUBCHEM_COMPONENT_COUNT>
1

> <PUBCHEM_CACTVS_TAUTO_COUNT>
2

> <PUBCHEM_CONFORMER_ID>
00B0916300000001

> <PUBCHEM_MMFF94_ENERGY>
74.0413

> <PUBCHEM_FEATURE_SELFOVERLAP>
40.758

> <PUBCHEM_SHAPE_FINGERPRINT>
10319926 262 18411976949193568010
10928967 22 13623535666631671065
11405975 8 18410294683929436899
12107183 9 18191864518459944515
12403259 118 18341323491918604121
12553582 1 15936690384787586018
12633257 1 18188473744764476352
12788726 201 15374886526800517948
12892183 10 18339633555088579897
12925494 130 18267300929438009049
13103583 49 18041261206684315264
13140716 1 18411135805866187759
13150687 139 9942363070822386634
13224815 77 18337677524303881471
13383661 66 12163600579353171217
13533116 47 18187930629286714507
13583140 156 18262504966468970031
14223995 32 17688022021084554981
14251764 38 18412823616640213357
14341114 176 18340209600460570985
14790565 3 18120093051234566924
15238133 3 18263653852872118428
17492 89 18337392737812875259
17844677 252 18412269445536323531
1813 80 16732984202024446685
20715895 44 18127689332172988993
20775530 9 15794516827273043514
21033648 29 17845354614224714258
21065198 57 18411138017922090259
21065199 12 18412822516721968699
21756936 100 17550939730655631456
21859007 373 17605258590096261549
22149856 69 16630536146494752911
23559900 14 18200611206309913751
3117164 225 18336262341222395273
460360 51 18341907289880754873
5104073 3 18341898489513838515
633830 44 13685757051185088975
6823239 73 18270696328201461004
7097593 13 18336816580829074744
8509985 295 18337389323028817357
8988823 20 18190450761276516767
960060 61 12179839520034382963

> <PUBCHEM_SHAPE_MULTIPOLES>
519.6
11.52
3.9
1.6
11.91
1.64
0.3
-0.24
-4.2
0.9
-0.39
-2.29
0.01
0.53

> <PUBCHEM_SHAPE_SELFOVERLAP>
1119.143

> <PUBCHEM_SHAPE_VOLUME>
289.6

> <PUBCHEM_COORDINATE_TYPE>
2
5
10

$$$$
