11636326
  -OEChem-07202400543D

 49 52  0     1  0  0  0  0  0999 V2000
   -7.7242    1.7109   -0.1885 Cl  0  0  0  0  0  0  0  0  0  0  0  0
    4.0115    3.7156   -0.7937 F   0  0  0  0  0  0  0  0  0  0  0  0
    3.5610   -2.5918    0.1664 O   0  0  0  0  0  0  0  0  0  0  0  0
   -1.9399   -2.8101   -0.1026 O   0  0  0  0  0  0  0  0  0  0  0  0
    3.3963   -0.3044    1.5476 O   0  0  0  0  0  0  0  0  0  0  0  0
   -4.0368   -1.9062   -0.1647 O   0  0  0  0  0  0  0  0  0  0  0  0
    3.5894    1.0015   -0.3865 N   0  0  0  0  0  0  0  0  0  0  0  0
   -2.2868   -0.4733   -0.0187 N   0  0  0  0  0  0  0  0  0  0  0  0
    4.1839   -1.4392   -0.3908 C   0  0  1  0  0  0  0  0  0  0  0  0
    3.6770   -0.1989    0.3488 C   0  0  0  0  0  0  0  0  0  0  0  0
    2.5941    1.9828    0.0002 C   0  0  0  0  0  0  0  0  0  0  0  0
    5.6847   -1.6041   -0.2033 C   0  0  0  0  0  0  0  0  0  0  0  0
    2.1942   -2.6462    0.0993 C   0  0  0  0  0  0  0  0  0  0  0  0
    4.4663    1.2990   -1.5297 C   0  0  0  0  0  0  0  0  0  0  0  0
    2.8671    3.3036   -0.2294 C   0  0  0  0  0  0  0  0  0  0  0  0
    1.4367    1.5291    0.5722 C   0  0  0  0  0  0  0  0  0  0  0  0
    1.4499   -2.7263    1.2712 C   0  0  0  0  0  0  0  0  0  0  0  0
    1.5634   -2.6211   -1.1398 C   0  0  0  0  0  0  0  0  0  0  0  0
   -0.5814   -2.7574   -0.0360 C   0  0  0  0  0  0  0  0  0  0  0  0
    0.0578   -2.7822    1.2033 C   0  0  0  0  0  0  0  0  0  0  0  0
    0.1713   -2.6768   -1.2077 C   0  0  0  0  0  0  0  0  0  0  0  0
   -4.5350   -0.6353   -0.1346 C   0  0  0  0  0  0  0  0  0  0  0  0
   -3.4615    0.2386   -0.0453 C   0  0  0  0  0  0  0  0  0  0  0  0
    1.9071    4.2450    0.1420 C   0  0  0  0  0  0  0  0  0  0  0  0
    0.4769    2.4706    0.9437 C   0  0  0  0  0  0  0  0  0  0  0  0
    0.7121    3.8286    0.7287 C   0  0  0  0  0  0  0  0  0  0  0  0
   -2.7066   -1.6971   -0.0912 C   0  0  0  0  0  0  0  0  0  0  0  0
   -5.8686   -0.2487   -0.1828 C   0  0  0  0  0  0  0  0  0  0  0  0
   -3.7122    1.6174    0.0016 C   0  0  0  0  0  0  0  0  0  0  0  0
   -6.1015    1.1300   -0.1352 C   0  0  0  0  0  0  0  0  0  0  0  0
   -5.0466    2.0465   -0.0448 C   0  0  0  0  0  0  0  0  0  0  0  0
    3.9541   -1.3861   -1.4587 H   0  0  0  0  0  0  0  0  0  0  0  0
    6.0379   -2.5009   -0.7237 H   0  0  0  0  0  0  0  0  0  0  0  0
    6.2484   -0.7423   -0.5701 H   0  0  0  0  0  0  0  0  0  0  0  0
    5.9317   -1.7381    0.8565 H   0  0  0  0  0  0  0  0  0  0  0  0
    3.9167    1.8509   -2.2986 H   0  0  0  0  0  0  0  0  0  0  0  0
    4.8559    0.3969   -1.9999 H   0  0  0  0  0  0  0  0  0  0  0  0
    5.3255    1.8735   -1.1706 H   0  0  0  0  0  0  0  0  0  0  0  0
    1.2022    0.4807    0.7158 H   0  0  0  0  0  0  0  0  0  0  0  0
    1.9429   -2.7483    2.2389 H   0  0  0  0  0  0  0  0  0  0  0  0
    2.1332   -2.5765   -2.0631 H   0  0  0  0  0  0  0  0  0  0  0  0
   -0.5221   -2.8453    2.1201 H   0  0  0  0  0  0  0  0  0  0  0  0
   -0.3201   -2.6611   -2.1768 H   0  0  0  0  0  0  0  0  0  0  0  0
    2.0900    5.3023   -0.0264 H   0  0  0  0  0  0  0  0  0  0  0  0
   -0.4576    2.1456    1.3918 H   0  0  0  0  0  0  0  0  0  0  0  0
   -0.0364    4.5613    1.0157 H   0  0  0  0  0  0  0  0  0  0  0  0
   -6.6691   -0.9757   -0.2526 H   0  0  0  0  0  0  0  0  0  0  0  0
   -2.9028    2.3365    0.0710 H   0  0  0  0  0  0  0  0  0  0  0  0
   -5.2495    3.1149   -0.0091 H   0  0  0  0  0  0  0  0  0  0  0  0
  1 30  1  0  0  0  0
  2 15  1  0  0  0  0
  3  9  1  0  0  0  0
  3 13  1  0  0  0  0
  4 19  1  0  0  0  0
  4 27  1  0  0  0  0
  5 10  2  0  0  0  0
  6 22  1  0  0  0  0
  6 27  1  0  0  0  0
  7 10  1  0  0  0  0
  7 11  1  0  0  0  0
  7 14  1  0  0  0  0
  8 23  1  0  0  0  0
  8 27  2  0  0  0  0
  9 10  1  0  0  0  0
  9 12  1  0  0  0  0
  9 32  1  0  0  0  0
 11 15  1  0  0  0  0
 11 16  2  0  0  0  0
 12 33  1  0  0  0  0
 12 34  1  0  0  0  0
 12 35  1  0  0  0  0
 13 17  2  0  0  0  0
 13 18  1  0  0  0  0
 14 36  1  0  0  0  0
 14 37  1  0  0  0  0
 14 38  1  0  0  0  0
 15 24  2  0  0  0  0
 16 25  1  0  0  0  0
 16 39  1  0  0  0  0
 17 20  1  0  0  0  0
 17 40  1  0  0  0  0
 18 21  2  0  0  0  0
 18 41  1  0  0  0  0
 19 20  2  0  0  0  0
 19 21  1  0  0  0  0
 20 42  1  0  0  0  0
 21 43  1  0  0  0  0
 22 23  2  0  0  0  0
 22 28  1  0  0  0  0
 23 29  1  0  0  0  0
 24 26  1  0  0  0  0
 24 44  1  0  0  0  0
 25 26  2  0  0  0  0
 25 45  1  0  0  0  0
 26 46  1  0  0  0  0
 28 30  2  0  0  0  0
 28 47  1  0  0  0  0
 29 31  2  0  0  0  0
 29 48  1  0  0  0  0
 30 31  1  0  0  0  0
 31 49  1  0  0  0  0
M  END
> <PUBCHEM_COMPOUND_CID>
11636326

> <PUBCHEM_CONFORMER_RMSD>
1.2

> <PUBCHEM_CONFORMER_DIVERSEORDER>
4
49
183
186
72
120
159
122
188
32
93
113
78
134
66
12
119
84
148
170
165
117
131
128
21
53
133
157
25
51
194
173
22
127
190
102
74
164
111
28
64
86
178
135
105
3
149
145
136
192
19
172
140
85
29
123
90
139
200
75
147
152
31
177
146
11
62
13
154
99
163
106
166
23
103
160
57
83
35
33
150
65
1
174
45
43
7
125
92
115
168
24
114
81
118
71
171
143
54
68
104
155
20
80
162
132
161
47
195
97
107
112
141
158
94
156
96
108
101
26
181
36
87
48
109
151
129
79
6
167
18
10
77
40
70
142
126
189
144
153
199
27
37
182
175
34
9
2
50
138
69
110
76
61
38
89
63
116
14
100
121
42
130
95
39
55
16
98
196
5
124
30
67
58
197
185
52
137
187
60
82
46
17
41
8
169
15
59
198
88
56
91
73
179
176
180
191
44
193
184

> <PUBCHEM_MMFF94_PARTIAL_CHARGES>
41
1 -0.18
10 0.57
11 0.12
13 0.08
14 0.3
15 0.19
16 -0.15
17 -0.15
18 -0.15
19 0.08
2 -0.19
20 -0.15
21 -0.15
22 0.14
23 0.23
24 -0.15
25 -0.15
26 -0.15
27 0.54
28 -0.15
29 -0.15
3 -0.36
30 0.18
31 -0.15
39 0.15
4 -0.15
40 0.15
41 0.15
42 0.15
43 0.15
44 0.15
45 0.15
46 0.15
47 0.15
48 0.15
49 0.15
5 -0.57
6 -0.28
7 -0.48
8 -0.57
9 0.34

> <PUBCHEM_EFFECTIVE_ROTOR_COUNT>
7

> <PUBCHEM_PHARMACOPHORE_FEATURES>
6
1 3 acceptor
1 5 acceptor
5 6 8 22 23 27 rings
6 11 15 16 24 25 26 rings
6 13 17 18 19 20 21 rings
6 22 23 28 29 30 31 rings

> <PUBCHEM_HEAVY_ATOM_COUNT>
31

> <PUBCHEM_ATOM_DEF_STEREO_COUNT>
1

> <PUBCHEM_ATOM_UDEF_STEREO_COUNT>
0

> <PUBCHEM_BOND_DEF_STEREO_COUNT>
0

> <PUBCHEM_BOND_UDEF_STEREO_COUNT>
0

> <PUBCHEM_ISOTOPIC_ATOM_COUNT>
0

> <PUBCHEM_COMPONENT_COUNT>
1

> <PUBCHEM_CACTVS_TAUTO_COUNT>
1

> <PUBCHEM_CONFORMER_ID>
00B18E6600000004

> <PUBCHEM_MMFF94_ENERGY>
108.3752

> <PUBCHEM_FEATURE_SELFOVERLAP>
30.577

> <PUBCHEM_SHAPE_FINGERPRINT>
10006869 2 18194950856453517426
10190206 1 18124348032785299556
10439779 11 18125425648105206888
10483366 6 18338813260366171396
10675989 125 18411139151430245768
1100329 8 18409729560749106314
11273773 38 18410294717851643564
11513181 2 18057607774835109870
11578080 2 15141830439247505646
12925494 130 18409727396417612851
12978246 48 18339921627383100769
13122387 1 16682036934987495728
13402501 40 18338796719581970223
13560911 43 18262798450464553057
13944108 23 18337678524636058060
14028597 1 17678164998647680602
14117953 113 18270400477647288534
14931854 50 18340498806515805156
15001296 14 18334852848836030281
15082195 135 18270379673559540447
151778 21 18337388356893271365
15210252 30 18261117374631997708
15238133 3 18334294301714515598
15264996 151 18044940065427856009
15320295 198 18188770532059532413
15320467 1 18339080385097834597
15322687 12 18410573998305606017
15326921 28 17047935197877032584
15400415 2 18050566541147642353
15475509 84 17540802902676341066
16067689 134 17405435399722065441
16067689 302 18340770460042149743
16067690 210 15358253758923917589
16087824 20 18339081476056555020
16760501 71 18411705357785697419
16992727 255 18117856601849945020
21344244 78 17683501971204648291
21475661 188 18408882949264194519
21860390 5 18272935990137095718
22122407 14 18337401452717652947
23559900 14 18271515434678970241
245318 6 18042137599087615109
24893992 56 18334858286718281675
27425 322 16805892912715362905
3004659 81 18334012761796265952
3103668 31 17831020131283926670
3298306 158 18340487867466119333
338550 245 18409165523720579188
3680242 22 18263360300400022379
4066623 53 17840038346988130462
437795 70 17984725337034480366
463206 1 18339369556323728128
5081480 168 17413911710294120463
508180 173 18269287897098584552
513532 50 17917994949625784574
5265222 85 17760098705940637228
53794403 172 18408324419143110541
550186 83 17895178975153184280
5776283 40 17905060483905424420
58902169 19 18059277774727346975
6443956 14 18410293566926846260
7288768 16 17679294436625859922

> <PUBCHEM_SHAPE_MULTIPOLES>
599.12
13.86
5.53
1.03
21.82
3.05
-0.03
4.29
2.32
-4.73
-0.22
-0.88
-0.22
-0.51

> <PUBCHEM_SHAPE_SELFOVERLAP>
1312.018

> <PUBCHEM_SHAPE_VOLUME>
326.4

> <PUBCHEM_COORDINATE_TYPE>
2
5
10

$$$$
