11649137
  -OEChem-07202400403D

 82 86  0     1  0  0  0  0  0999 V2000
   -5.1237   -0.6867    0.6896 O   0  0  0  0  0  0  0  0  0  0  0  0
    5.6025    0.3090   -1.3017 O   0  0  0  0  0  0  0  0  0  0  0  0
   -1.4767   -4.6550   -0.0582 O   0  0  0  0  0  0  0  0  0  0  0  0
    7.4690    1.6421   -1.1333 O   0  0  0  0  0  0  0  0  0  0  0  0
   -1.3069    2.1209   -0.2411 N   0  0  0  0  0  0  0  0  0  0  0  0
    0.8791    0.8600   -0.1572 C   0  0  1  0  0  0  0  0  0  0  0  0
    1.1206   -0.6325    0.3034 C   0  0  2  0  0  0  0  0  0  0  0  0
    2.0539    1.6879    0.4225 C   0  0  0  0  0  0  0  0  0  0  0  0
    0.9016    0.9968   -1.7121 C   0  0  0  0  0  0  0  0  0  0  0  0
   -0.4372    1.4581    0.4406 C   0  0  0  0  0  0  0  0  0  0  0  0
    3.4126    1.2283   -0.1047 C   0  0  0  0  0  0  0  0  0  0  0  0
    2.5606   -1.1312    0.0535 C   0  0  0  0  0  0  0  0  0  0  0  0
    3.5851   -0.2722   -0.1622 C   0  0  0  0  0  0  0  0  0  0  0  0
   -0.4817    1.1389   -2.3194 C   0  0  0  0  0  0  0  0  0  0  0  0
    0.0811   -1.5835   -0.2759 C   0  0  0  0  0  0  0  0  0  0  0  0
   -0.7010    1.3221    1.9516 C   0  0  0  0  0  0  0  0  0  0  0  0
   -1.1576    2.3230   -1.6695 C   0  0  0  0  0  0  0  0  0  0  0  0
    4.9997   -0.6888   -0.4759 C   0  0  2  0  0  0  0  0  0  0  0  0
    2.7655   -2.6261    0.1598 C   0  0  0  0  0  0  0  0  0  0  0  0
   -5.3142    0.9685   -1.0191 C   0  0  1  0  0  0  0  0  0  0  0  0
   -5.1138   -1.3520   -0.5860 C   0  0  1  0  0  0  0  0  0  0  0  0
   -0.7744   -2.3961    0.3810 C   0  0  0  0  0  0  0  0  0  0  0  0
   -5.3440    0.7309    0.4989 C   0  0  2  0  0  0  0  0  0  0  0  0
   -2.0743    1.8073    2.4417 C   0  0  0  0  0  0  0  0  0  0  0  0
   -5.7483   -0.3775   -1.5599 C   0  0  0  0  0  0  0  0  0  0  0  0
   -1.7217   -3.2897   -0.4086 C   0  0  2  0  0  0  0  0  0  0  0  0
   -3.6651   -1.7136   -0.9450 C   0  0  0  0  0  0  0  0  0  0  0  0
   -3.2082   -2.9670   -0.1879 C   0  0  0  0  0  0  0  0  0  0  0  0
   -4.3241    1.5720    1.2569 C   0  0  0  0  0  0  0  0  0  0  0  0
   -3.2123    1.0453    1.8109 C   0  0  0  0  0  0  0  0  0  0  0  0
    5.8575   -0.7345    0.7178 C   0  0  0  0  0  0  0  0  0  0  0  0
   -6.2089    2.0969   -1.5122 C   0  0  0  0  0  0  0  0  0  0  0  0
   -0.8360   -2.5326    1.8823 C   0  0  0  0  0  0  0  0  0  0  0  0
    6.8774    0.1140    0.6104 C   0  0  0  0  0  0  0  0  0  0  0  0
   -4.6445    3.0417    1.3428 C   0  0  0  0  0  0  0  0  0  0  0  0
    6.7222    0.7900   -0.6838 C   0  0  0  0  0  0  0  0  0  0  0  0
    7.9862    0.3856    1.5503 C   0  0  0  0  0  0  0  0  0  0  0  0
    1.0448   -0.6492    1.3937 H   0  0  0  0  0  0  0  0  0  0  0  0
    2.0680    1.6063    1.5172 H   0  0  0  0  0  0  0  0  0  0  0  0
    1.9187    2.7559    0.2071 H   0  0  0  0  0  0  0  0  0  0  0  0
    1.4228    0.1589   -2.1888 H   0  0  0  0  0  0  0  0  0  0  0  0
    1.4664    1.8934   -2.0015 H   0  0  0  0  0  0  0  0  0  0  0  0
    4.1761    1.6745    0.5441 H   0  0  0  0  0  0  0  0  0  0  0  0
    3.5610    1.6503   -1.1060 H   0  0  0  0  0  0  0  0  0  0  0  0
   -0.3988    1.3015   -3.3997 H   0  0  0  0  0  0  0  0  0  0  0  0
   -1.0760    0.2314   -2.1737 H   0  0  0  0  0  0  0  0  0  0  0  0
    0.0608   -1.6241   -1.3639 H   0  0  0  0  0  0  0  0  0  0  0  0
   -0.5866    0.2788    2.2461 H   0  0  0  0  0  0  0  0  0  0  0  0
    0.0706    1.8950    2.4767 H   0  0  0  0  0  0  0  0  0  0  0  0
   -0.6059    3.2514   -1.8567 H   0  0  0  0  0  0  0  0  0  0  0  0
   -2.1525    2.4509   -2.1096 H   0  0  0  0  0  0  0  0  0  0  0  0
    5.0369   -1.6314   -1.0311 H   0  0  0  0  0  0  0  0  0  0  0  0
    2.2655   -3.0142    1.0538 H   0  0  0  0  0  0  0  0  0  0  0  0
    3.8147   -2.9165    0.2544 H   0  0  0  0  0  0  0  0  0  0  0  0
    2.3599   -3.1337   -0.7211 H   0  0  0  0  0  0  0  0  0  0  0  0
   -4.2867    1.1654   -1.3523 H   0  0  0  0  0  0  0  0  0  0  0  0
   -5.7211   -2.2609   -0.5124 H   0  0  0  0  0  0  0  0  0  0  0  0
   -6.3430    0.9283    0.9072 H   0  0  0  0  0  0  0  0  0  0  0  0
   -6.8405   -0.4701   -1.5032 H   0  0  0  0  0  0  0  0  0  0  0  0
   -5.4547   -0.5427   -2.6009 H   0  0  0  0  0  0  0  0  0  0  0  0
   -2.1483    2.8831    2.2543 H   0  0  0  0  0  0  0  0  0  0  0  0
   -2.1270    1.6652    3.5276 H   0  0  0  0  0  0  0  0  0  0  0  0
   -1.5060   -3.2236   -1.4816 H   0  0  0  0  0  0  0  0  0  0  0  0
   -2.9971   -0.8782   -0.7093 H   0  0  0  0  0  0  0  0  0  0  0  0
   -3.5847   -1.9124   -2.0204 H   0  0  0  0  0  0  0  0  0  0  0  0
   -3.4277   -2.8708    0.8820 H   0  0  0  0  0  0  0  0  0  0  0  0
   -3.8094   -3.8210   -0.5282 H   0  0  0  0  0  0  0  0  0  0  0  0
   -3.0554   -0.0290    1.7576 H   0  0  0  0  0  0  0  0  0  0  0  0
    5.6960   -1.3894    1.5628 H   0  0  0  0  0  0  0  0  0  0  0  0
   -6.2315    2.1167   -2.6071 H   0  0  0  0  0  0  0  0  0  0  0  0
   -7.2381    1.9753   -1.1580 H   0  0  0  0  0  0  0  0  0  0  0  0
   -5.8498    3.0720   -1.1747 H   0  0  0  0  0  0  0  0  0  0  0  0
   -0.8156   -3.5860    2.1787 H   0  0  0  0  0  0  0  0  0  0  0  0
   -1.7549   -2.0853    2.2714 H   0  0  0  0  0  0  0  0  0  0  0  0
    0.0043   -2.0669    2.3996 H   0  0  0  0  0  0  0  0  0  0  0  0
   -4.2255    3.5088    2.2390 H   0  0  0  0  0  0  0  0  0  0  0  0
   -5.7269    3.1988    1.4013 H   0  0  0  0  0  0  0  0  0  0  0  0
   -4.2616    3.5688    0.4640 H   0  0  0  0  0  0  0  0  0  0  0  0
   -1.9790   -4.8586    0.7490 H   0  0  0  0  0  0  0  0  0  0  0  0
    7.9069   -0.2307    2.4516 H   0  0  0  0  0  0  0  0  0  0  0  0
    7.9788    1.4358    1.8586 H   0  0  0  0  0  0  0  0  0  0  0  0
    8.9502    0.1705    1.0787 H   0  0  0  0  0  0  0  0  0  0  0  0
  1 21  1  0  0  0  0
  1 23  1  0  0  0  0
  2 18  1  0  0  0  0
  2 36  1  0  0  0  0
  3 26  1  0  0  0  0
  3 79  1  0  0  0  0
  4 36  2  0  0  0  0
  5 10  2  0  0  0  0
  5 17  1  0  0  0  0
  6  7  1  0  0  0  0
  6  8  1  0  0  0  0
  6  9  1  0  0  0  0
  6 10  1  0  0  0  0
  7 12  1  0  0  0  0
  7 15  1  0  0  0  0
  7 38  1  0  0  0  0
  8 11  1  0  0  0  0
  8 39  1  0  0  0  0
  8 40  1  0  0  0  0
  9 14  1  0  0  0  0
  9 41  1  0  0  0  0
  9 42  1  0  0  0  0
 10 16  1  0  0  0  0
 11 13  1  0  0  0  0
 11 43  1  0  0  0  0
 11 44  1  0  0  0  0
 12 13  2  0  0  0  0
 12 19  1  0  0  0  0
 13 18  1  0  0  0  0
 14 17  1  0  0  0  0
 14 45  1  0  0  0  0
 14 46  1  0  0  0  0
 15 22  2  0  0  0  0
 15 47  1  0  0  0  0
 16 24  1  0  0  0  0
 16 48  1  0  0  0  0
 16 49  1  0  0  0  0
 17 50  1  0  0  0  0
 17 51  1  0  0  0  0
 18 31  1  0  0  0  0
 18 52  1  0  0  0  0
 19 53  1  0  0  0  0
 19 54  1  0  0  0  0
 19 55  1  0  0  0  0
 20 23  1  0  0  0  0
 20 25  1  0  0  0  0
 20 32  1  0  0  0  0
 20 56  1  0  0  0  0
 21 25  1  0  0  0  0
 21 27  1  0  0  0  0
 21 57  1  0  0  0  0
 22 26  1  0  0  0  0
 22 33  1  0  0  0  0
 23 29  1  0  0  0  0
 23 58  1  0  0  0  0
 24 30  1  0  0  0  0
 24 61  1  0  0  0  0
 24 62  1  0  0  0  0
 25 59  1  0  0  0  0
 25 60  1  0  0  0  0
 26 28  1  0  0  0  0
 26 63  1  0  0  0  0
 27 28  1  0  0  0  0
 27 64  1  0  0  0  0
 27 65  1  0  0  0  0
 28 66  1  0  0  0  0
 28 67  1  0  0  0  0
 29 30  2  0  0  0  0
 29 35  1  0  0  0  0
 30 68  1  0  0  0  0
 31 34  2  0  0  0  0
 31 69  1  0  0  0  0
 32 70  1  0  0  0  0
 32 71  1  0  0  0  0
 32 72  1  0  0  0  0
 33 73  1  0  0  0  0
 33 74  1  0  0  0  0
 33 75  1  0  0  0  0
 34 36  1  0  0  0  0
 34 37  1  0  0  0  0
 35 76  1  0  0  0  0
 35 77  1  0  0  0  0
 35 78  1  0  0  0  0
 37 80  1  0  0  0  0
 37 81  1  0  0  0  0
 37 82  1  0  0  0  0
M  END
> <PUBCHEM_COMPOUND_CID>
11649137

> <PUBCHEM_CONFORMER_RMSD>
0.8

> <PUBCHEM_CONFORMER_DIVERSEORDER>
1
3
2

> <PUBCHEM_MMFF94_PARTIAL_CHARGES>
33
1 -0.56
10 0.33
11 0.14
12 -0.28
13 -0.28
15 -0.29
16 0.06
17 0.25
18 0.56
19 0.14
2 -0.43
21 0.28
22 -0.28
23 0.42
24 0.14
26 0.42
29 -0.28
3 -0.68
30 -0.29
31 -0.29
33 0.14
34 -0.12
35 0.14
36 0.71
37 0.14
4 -0.57
47 0.15
5 -0.7
6 0.06
68 0.15
69 0.15
7 0.28
79 0.4

> <PUBCHEM_EFFECTIVE_ROTOR_COUNT>
4

> <PUBCHEM_PHARMACOPHORE_FEATURES>
9
1 1 acceptor
1 3 acceptor
1 3 donor
1 4 acceptor
1 5 acceptor
5 1 20 21 23 25 rings
5 2 18 31 34 36 rings
6 5 6 9 10 14 17 rings
6 6 7 8 11 12 13 rings

> <PUBCHEM_HEAVY_ATOM_COUNT>
37

> <PUBCHEM_ATOM_DEF_STEREO_COUNT>
7

> <PUBCHEM_ATOM_UDEF_STEREO_COUNT>
0

> <PUBCHEM_BOND_DEF_STEREO_COUNT>
2

> <PUBCHEM_BOND_UDEF_STEREO_COUNT>
0

> <PUBCHEM_ISOTOPIC_ATOM_COUNT>
0

> <PUBCHEM_COMPONENT_COUNT>
1

> <PUBCHEM_CACTVS_TAUTO_COUNT>
1

> <PUBCHEM_CONFORMER_ID>
00B1C07100000001

> <PUBCHEM_MMFF94_ENERGY>
80.9011

> <PUBCHEM_FEATURE_SELFOVERLAP>
45.675

> <PUBCHEM_SHAPE_FINGERPRINT>
10032420 55 17916292862745263105
10906281 52 18261685834955093790
11007060 377 18272370871156604905
11135926 11 18339080381245654297
11136131 41 18116143368748529170
11513181 2 17845378747968230343
12104220 1 18272084981270115632
12788726 201 17917429787405528907
13560911 43 18261108621536082267
13692115 27 18048311442651146938
13947920 75 18341609330445132682
14068700 675 18271240650470061160
14294032 229 18260831450138286324
14295345 954 17561366188683109644
14394314 77 18201445727737155481
14840074 17 18113623360847242023
14856354 85 18272653471715304229
14931854 50 18201146677742966199
15021287 119 17458065988383641916
15131766 46 15504943088931530934
15145343 4 18200579420033039640
15183329 4 18408601487425340206
15274700 242 16878483667029552552
15276724 80 17894623777979177452
15297060 5 18131356289366526035
15968369 153 16988555853844675272
16112460 7 18338796706744989586
19958102 18 18341619161836497078
20511986 3 18261386750337780050
20775438 99 16332399393609826143
21236236 1 18344150297527041578
23559900 14 18129939095654782640
24771293 8 18343866619976634504
3383291 50 18271245031759670843
350125 39 18336262440391855780
469060 322 17894629266673269414
484989 97 18193830678013176327
5080951 261 18268685334677960462
6328613 192 18335703883751998588
70634741 139 18268996551665035288
7226269 152 18272370884326044083

> <PUBCHEM_SHAPE_MULTIPOLES>
732.98
17.03
3.68
1.89
22.7
3.28
-0.21
-5.82
1.32
-4.02
-0.34
-1.21
-1.08
-1.15

> <PUBCHEM_SHAPE_SELFOVERLAP>
1545.414

> <PUBCHEM_SHAPE_VOLUME>
409.2

> <PUBCHEM_COORDINATE_TYPE>
2
5
10

$$$$
