11693711
  -OEChem-07202400543D

 37 38  0     0  0  0  0  0  0999 V2000
   -0.1307    2.1291    1.1139 S   0  0  0  0  0  0  0  0  0  0  0  0
   -4.7783   -1.8049   -0.7839 F   0  0  0  0  0  0  0  0  0  0  0  0
   -4.4859   -1.2418    1.2901 F   0  0  0  0  0  0  0  0  0  0  0  0
   -5.1307    0.2475   -0.1573 F   0  0  0  0  0  0  0  0  0  0  0  0
    1.4622    1.3621   -2.0001 O   0  0  0  0  0  0  0  0  0  0  0  0
   -1.0691    2.5472    2.1435 O   0  0  0  0  0  0  0  0  0  0  0  0
    1.2054    1.6879    1.4845 O   0  0  0  0  0  0  0  0  0  0  0  0
    1.1191   -1.7080    0.9545 O   0  0  0  0  0  0  0  0  0  0  0  0
    3.4656   -1.6302    0.8386 N   0  0  0  0  0  0  0  0  0  0  0  0
    4.3192   -0.8373    0.1346 N   0  0  0  0  0  0  0  0  0  0  0  0
   -0.8979    0.8680    0.1724 C   0  0  0  0  0  0  0  0  0  0  0  0
   -0.2437    0.1867   -0.8284 C   0  0  0  0  0  0  0  0  0  0  0  0
    2.2791   -0.1736   -0.4952 C   0  0  0  0  0  0  0  0  0  0  0  0
    1.1781    0.5083   -1.1533 C   0  0  0  0  0  0  0  0  0  0  0  0
    3.5996    0.0022   -0.6769 C   0  0  0  0  0  0  0  0  0  0  0  0
   -2.2255    0.5409    0.4483 C   0  0  0  0  0  0  0  0  0  0  0  0
    2.1703   -1.2646    0.5240 C   0  0  0  0  0  0  0  0  0  0  0  0
   -2.8641   -0.4596   -0.2843 C   0  0  0  0  0  0  0  0  0  0  0  0
   -0.8477   -0.8058   -1.5692 C   0  0  0  0  0  0  0  0  0  0  0  0
   -2.1752   -1.1329   -1.2932 C   0  0  0  0  0  0  0  0  0  0  0  0
    4.3080    0.9191   -1.6101 C   0  0  0  0  0  0  0  0  0  0  0  0
    0.0631    3.4734   -0.0325 C   0  0  0  0  0  0  0  0  0  0  0  0
    3.9627   -2.6043    1.7698 C   0  0  0  0  0  0  0  0  0  0  0  0
   -4.2836   -0.8095    0.0103 C   0  0  0  0  0  0  0  0  0  0  0  0
   -2.7842    1.0526    1.2272 H   0  0  0  0  0  0  0  0  0  0  0  0
   -0.3163   -1.3334   -2.3557 H   0  0  0  0  0  0  0  0  0  0  0  0
    5.2804   -1.0930   -0.0440 H   0  0  0  0  0  0  0  0  0  0  0  0
   -2.6554   -1.9149   -1.8747 H   0  0  0  0  0  0  0  0  0  0  0  0
    4.3042    0.5111   -2.6256 H   0  0  0  0  0  0  0  0  0  0  0  0
    5.3523    1.0546   -1.3073 H   0  0  0  0  0  0  0  0  0  0  0  0
    3.8555    1.9149   -1.6216 H   0  0  0  0  0  0  0  0  0  0  0  0
   -0.8833    3.6405   -0.5503 H   0  0  0  0  0  0  0  0  0  0  0  0
    0.3178    4.3640    0.5481 H   0  0  0  0  0  0  0  0  0  0  0  0
    0.8676    3.2746   -0.7346 H   0  0  0  0  0  0  0  0  0  0  0  0
    3.1257   -3.1331    2.2331 H   0  0  0  0  0  0  0  0  0  0  0  0
    4.5442   -2.0956    2.5435 H   0  0  0  0  0  0  0  0  0  0  0  0
    4.5975   -3.3180    1.2379 H   0  0  0  0  0  0  0  0  0  0  0  0
  1  6  2  0  0  0  0
  1  7  2  0  0  0  0
  1 11  1  0  0  0  0
  1 22  1  0  0  0  0
  2 24  1  0  0  0  0
  3 24  1  0  0  0  0
  4 24  1  0  0  0  0
  5 14  2  0  0  0  0
  8 17  2  0  0  0  0
  9 10  1  0  0  0  0
  9 17  1  0  0  0  0
  9 23  1  0  0  0  0
 10 15  1  0  0  0  0
 10 27  1  0  0  0  0
 11 12  2  0  0  0  0
 11 16  1  0  0  0  0
 12 14  1  0  0  0  0
 12 19  1  0  0  0  0
 13 14  1  0  0  0  0
 13 15  2  0  0  0  0
 13 17  1  0  0  0  0
 15 21  1  0  0  0  0
 16 18  2  0  0  0  0
 16 25  1  0  0  0  0
 18 20  1  0  0  0  0
 18 24  1  0  0  0  0
 19 20  2  0  0  0  0
 19 26  1  0  0  0  0
 20 28  1  0  0  0  0
 21 29  1  0  0  0  0
 21 30  1  0  0  0  0
 21 31  1  0  0  0  0
 22 32  1  0  0  0  0
 22 33  1  0  0  0  0
 22 34  1  0  0  0  0
 23 35  1  0  0  0  0
 23 36  1  0  0  0  0
 23 37  1  0  0  0  0
M  END
> <PUBCHEM_COMPOUND_CID>
11693711

> <PUBCHEM_CONFORMER_RMSD>
0.8

> <PUBCHEM_CONFORMER_DIVERSEORDER>
1
10
8
14
9
15
4
13
16
3
11
6
5
12
7
2

> <PUBCHEM_MMFF94_PARTIAL_CHARGES>
28
1 1.2
10 -0.52
11 -0.01
12 0.09
13 0.03
14 0.47
15 -0.04
16 -0.15
17 0.62
18 -0.14
19 -0.15
2 -0.34
20 -0.15
21 0.14
22 0.11
23 0.3
24 1.16
25 0.15
26 0.15
27 0.4
28 0.15
3 -0.34
4 -0.34
5 -0.57
6 -0.65
7 -0.65
8 -0.57
9 -0.34

> <PUBCHEM_EFFECTIVE_ROTOR_COUNT>
4

> <PUBCHEM_PHARMACOPHORE_FEATURES>
7
1 10 donor
1 5 acceptor
1 6 acceptor
1 7 acceptor
1 8 acceptor
5 9 10 13 15 17 rings
6 11 12 16 18 19 20 rings

> <PUBCHEM_HEAVY_ATOM_COUNT>
24

> <PUBCHEM_ATOM_DEF_STEREO_COUNT>
0

> <PUBCHEM_ATOM_UDEF_STEREO_COUNT>
0

> <PUBCHEM_BOND_DEF_STEREO_COUNT>
0

> <PUBCHEM_BOND_UDEF_STEREO_COUNT>
0

> <PUBCHEM_ISOTOPIC_ATOM_COUNT>
0

> <PUBCHEM_COMPONENT_COUNT>
1

> <PUBCHEM_CACTVS_TAUTO_COUNT>
7

> <PUBCHEM_CONFORMER_ID>
00B26E8F00000001

> <PUBCHEM_MMFF94_ENERGY>
65.8262

> <PUBCHEM_FEATURE_SELFOVERLAP>
35.54

> <PUBCHEM_SHAPE_FINGERPRINT>
10382601 240 17843382223745990096
10948715 1 10807927184795269813
11578080 2 18192122993845574220
11796584 16 18335707139416784871
12236239 1 18410298012455199526
12553582 1 18131626798605713126
12633257 1 16701434832910858738
12788726 201 18271817791180090576
12824470 246 18115297857269843802
13004483 165 18264477412777214612
13009979 54 18194117418149624370
13140716 1 17702655700019876287
133893 2 17626349640407943949
13544653 18 18333449824485017027
13911987 19 17024903530762622380
14022347 108 18130245816338294478
14178342 30 17906160755794873386
14251757 17 16588029025983575779
14787075 74 18268152131377854752
15238133 3 18342186514553064697
15375462 189 18411416236960214606
15475509 35 18190185774996111363
1601671 61 17917161515569567077
16752209 62 18059293145618726533
16945 1 18188198918565555380
17980427 23 15983954095215305821
1813 80 18273495693036990989
18222031 100 17632854252682183135
19078846 21 18272939327690362521
200 152 18113900442130593590
20600515 1 17417798582676884707
20691752 17 18193539284711273533
21033648 29 15985105189447955179
23366157 5 17980749751774726445
23526113 38 16008754602092410916
23557571 272 17489036945973285332
23559900 14 17677335046865194269
23598288 3 18054494821283039374
3060560 45 9006789682639238224
312423 11 18265062344979905382
33382 64 17749966556303799691
3411729 13 17559384979887551688
392239 28 18270384110075718962
4072396 5 18130787811773954327
57527293 21 16916198045760765418
6786 2 17181943674784949132
90316 7 17988917834404288513

> <PUBCHEM_SHAPE_MULTIPOLES>
442.5
8.42
2.75
1.75
3.72
1.55
-0.13
-5.6
-0.07
-0.63
-1.31
-0.79
0.23
-1.96

> <PUBCHEM_SHAPE_SELFOVERLAP>
943.609

> <PUBCHEM_SHAPE_VOLUME>
251.1

> <PUBCHEM_COORDINATE_TYPE>
2
5
10

$$$$
