11826859
  -OEChem-07202400553D

 50 51  0     0  0  0  0  0  0999 V2000
    2.2378   -4.2564    0.0691 Cl  0  0  0  0  0  0  0  0  0  0  0  0
   -5.4894    3.2372   -0.6989 F   0  0  0  0  0  0  0  0  0  0  0  0
   -6.8251    1.5145   -0.7220 F   0  0  0  0  0  0  0  0  0  0  0  0
   -6.1883    2.3744    1.1772 F   0  0  0  0  0  0  0  0  0  0  0  0
    2.6261   -0.4402   -1.1558 O   0  0  0  0  0  0  0  0  0  0  0  0
    5.4800    1.2010    0.1645 O   0  0  0  0  0  0  0  0  0  0  0  0
   -3.7006   -2.0274    1.2959 O   0  0  0  0  0  0  0  0  0  0  0  0
   -1.2977    1.0635   -1.3038 O   0  0  0  0  0  0  0  0  0  0  0  0
    3.2610    1.7430    0.4582 O   0  0  0  0  0  0  0  0  0  0  0  0
    3.2879   -1.3456    0.8545 O   0  0  0  0  0  0  0  0  0  0  0  0
   -2.4195   -0.5509    0.0006 N   0  0  0  0  0  0  0  0  0  0  0  0
   -4.7069   -0.0817    0.5512 N   0  0  0  0  0  0  0  0  0  0  0  0
    3.9028    0.1907   -1.3027 C   0  0  0  0  0  0  0  0  0  0  0  0
   -1.2791   -1.4439    0.0173 C   0  0  0  0  0  0  0  0  0  0  0  0
   -4.6005    1.1617   -0.0590 C   0  0  0  0  0  0  0  0  0  0  0  0
   -3.6170   -0.9773    0.6488 C   0  0  0  0  0  0  0  0  0  0  0  0
    3.8880    0.9899   -2.6020 C   0  0  0  0  0  0  0  0  0  0  0  0
    4.9725   -0.8993   -1.3442 C   0  0  0  0  0  0  0  0  0  0  0  0
    1.1026   -1.7762    0.0038 C   0  0  0  0  0  0  0  0  0  0  0  0
    0.0047   -0.9159   -0.0121 C   0  0  0  0  0  0  0  0  0  0  0  0
   -2.2749    0.6795   -0.6619 C   0  0  0  0  0  0  0  0  0  0  0  0
   -3.4565    1.5588   -0.6239 C   0  0  0  0  0  0  0  0  0  0  0  0
    4.1495    1.1445   -0.1368 C   0  0  0  0  0  0  0  0  0  0  0  0
   -1.4855   -2.8160    0.0624 C   0  0  0  0  0  0  0  0  0  0  0  0
    2.4362   -1.1877   -0.0273 C   0  0  0  0  0  0  0  0  0  0  0  0
    0.9065   -3.1564    0.0492 C   0  0  0  0  0  0  0  0  0  0  0  0
   -5.9806   -0.4721    1.1619 C   0  0  0  0  0  0  0  0  0  0  0  0
   -0.3876   -3.6763    0.0785 C   0  0  0  0  0  0  0  0  0  0  0  0
   -5.7913    2.0837   -0.0754 C   0  0  0  0  0  0  0  0  0  0  0  0
    5.8289    2.0377    1.2720 C   0  0  0  0  0  0  0  0  0  0  0  0
    7.3082    1.9867    1.4645 C   0  0  0  0  0  0  0  0  0  0  0  0
    8.1078    3.0567    1.3961 C   0  0  0  0  0  0  0  0  0  0  0  0
    4.8355    1.5131   -2.7693 H   0  0  0  0  0  0  0  0  0  0  0  0
    3.6903    0.3376   -3.4600 H   0  0  0  0  0  0  0  0  0  0  0  0
    3.0879    1.7394   -2.5871 H   0  0  0  0  0  0  0  0  0  0  0  0
    5.9084   -0.5162   -1.7695 H   0  0  0  0  0  0  0  0  0  0  0  0
    5.2356   -1.3122   -0.3658 H   0  0  0  0  0  0  0  0  0  0  0  0
    4.6484   -1.7399   -1.9693 H   0  0  0  0  0  0  0  0  0  0  0  0
    0.2040    0.1493    0.0451 H   0  0  0  0  0  0  0  0  0  0  0  0
   -3.3510    2.5253   -1.1051 H   0  0  0  0  0  0  0  0  0  0  0  0
   -2.4606   -3.2843   -0.0100 H   0  0  0  0  0  0  0  0  0  0  0  0
   -6.7740   -0.4638    0.4101 H   0  0  0  0  0  0  0  0  0  0  0  0
   -5.9361   -1.4853    1.5715 H   0  0  0  0  0  0  0  0  0  0  0  0
   -6.2166    0.2051    1.9871 H   0  0  0  0  0  0  0  0  0  0  0  0
   -0.5567   -4.7502    0.0929 H   0  0  0  0  0  0  0  0  0  0  0  0
    5.3373    1.6637    2.1774 H   0  0  0  0  0  0  0  0  0  0  0  0
    5.4866    3.0608    1.0761 H   0  0  0  0  0  0  0  0  0  0  0  0
    7.7514    1.0171    1.6761 H   0  0  0  0  0  0  0  0  0  0  0  0
    9.1768    2.9539    1.5475 H   0  0  0  0  0  0  0  0  0  0  0  0
    7.7157    4.0464    1.1894 H   0  0  0  0  0  0  0  0  0  0  0  0
  1 26  1  0  0  0  0
  2 29  1  0  0  0  0
  3 29  1  0  0  0  0
  4 29  1  0  0  0  0
  5 13  1  0  0  0  0
  5 25  1  0  0  0  0
  6 23  1  0  0  0  0
  6 30  1  0  0  0  0
  7 16  2  0  0  0  0
  8 21  2  0  0  0  0
  9 23  2  0  0  0  0
 10 25  2  0  0  0  0
 11 14  1  0  0  0  0
 11 16  1  0  0  0  0
 11 21  1  0  0  0  0
 12 15  1  0  0  0  0
 12 16  1  0  0  0  0
 12 27  1  0  0  0  0
 13 17  1  0  0  0  0
 13 18  1  0  0  0  0
 13 23  1  0  0  0  0
 14 20  2  0  0  0  0
 14 24  1  0  0  0  0
 15 22  2  0  0  0  0
 15 29  1  0  0  0  0
 17 33  1  0  0  0  0
 17 34  1  0  0  0  0
 17 35  1  0  0  0  0
 18 36  1  0  0  0  0
 18 37  1  0  0  0  0
 18 38  1  0  0  0  0
 19 20  1  0  0  0  0
 19 25  1  0  0  0  0
 19 26  2  0  0  0  0
 20 39  1  0  0  0  0
 21 22  1  0  0  0  0
 22 40  1  0  0  0  0
 24 28  2  0  0  0  0
 24 41  1  0  0  0  0
 26 28  1  0  0  0  0
 27 42  1  0  0  0  0
 27 43  1  0  0  0  0
 27 44  1  0  0  0  0
 28 45  1  0  0  0  0
 30 31  1  0  0  0  0
 30 46  1  0  0  0  0
 30 47  1  0  0  0  0
 31 32  2  0  0  0  0
 31 48  1  0  0  0  0
 32 49  1  0  0  0  0
 32 50  1  0  0  0  0
M  END
> <PUBCHEM_COMPOUND_CID>
11826859

> <PUBCHEM_CONFORMER_RMSD>
1

> <PUBCHEM_CONFORMER_DIVERSEORDER>
2
41
77
38
10
74
34
47
20
80
91
32
72
9
37
94
64
51
70
78
46
73
49
102
54
26
61
40
33
57
88
76
53
45
27
79
18
67
58
92
99
75
62
98
31
71
50
39
25
35
84
68
66
48
24
1
56
13
82
28
87
7
63
6
16
65
93
21
42
85
4
43
8
90
55
97
60
15
12
29
11
17
5
14
36
101
81
100
69
95
19
83
23
22
96
3
52
89
30
59
86
44

> <PUBCHEM_MMFF94_PARTIAL_CHARGES>
37
1 -0.18
10 -0.57
11 -0.24
12 -0.47
13 0.34
14 0.12
15 -0.03
16 0.69
19 0.09
2 -0.34
20 -0.15
21 0.62
22 -0.14
23 0.66
24 -0.15
25 0.63
26 0.18
27 0.3
28 -0.15
29 1.16
3 -0.34
30 0.42
31 -0.29
32 -0.3
39 0.15
4 -0.34
40 0.15
41 0.15
45 0.15
48 0.15
49 0.15
5 -0.43
50 0.15
6 -0.43
7 -0.57
8 -0.57
9 -0.57

> <PUBCHEM_EFFECTIVE_ROTOR_COUNT>
9

> <PUBCHEM_PHARMACOPHORE_FEATURES>
8
1 10 acceptor
1 32 hydrophobe
1 7 acceptor
1 8 acceptor
1 9 acceptor
3 13 17 18 hydrophobe
6 11 12 15 16 21 22 rings
6 14 19 20 24 26 28 rings

> <PUBCHEM_HEAVY_ATOM_COUNT>
32

> <PUBCHEM_ATOM_DEF_STEREO_COUNT>
0

> <PUBCHEM_ATOM_UDEF_STEREO_COUNT>
0

> <PUBCHEM_BOND_DEF_STEREO_COUNT>
0

> <PUBCHEM_BOND_UDEF_STEREO_COUNT>
0

> <PUBCHEM_ISOTOPIC_ATOM_COUNT>
0

> <PUBCHEM_COMPONENT_COUNT>
1

> <PUBCHEM_CACTVS_TAUTO_COUNT>
1

> <PUBCHEM_CONFORMER_ID>
00B476AB00000002

> <PUBCHEM_MMFF94_ENERGY>
97.4847

> <PUBCHEM_FEATURE_SELFOVERLAP>
40.598

> <PUBCHEM_SHAPE_FINGERPRINT>
11135609 201 18341325673714446435
11720765 8 17557157099279494478
12403259 118 17968101978993543166
12403259 415 18412272743955233566
12422481 6 17385446488417200039
12633257 1 16081371894761705882
12895837 130 17987793167607104468
12925494 130 18046346323689003829
13878862 14 18043797698637175183
13965767 371 18113888356636149638
14395042 24 17970071256819093875
14790565 3 18189633768207260191
14950920 106 16298950999444420640
15183329 4 14980240630460373545
15238133 3 18114185276520835532
15289351 153 18272083856573928552
19053607 189 18187653478877925644
19304671 126 17703238321156043900
21033648 29 18409453613431949556
21756936 100 18269828865035156510
21859007 373 18408885110354859612
23559900 14 17970079846210340775
3459 39 18339907321200374832
34797466 226 17845941741097300485
350125 39 18189342268708899814
397638 26 18270385210020116760
5104073 3 18114752521362445211
6695519 79 18197523833642283635
7064713 232 18259991495540498588
7808743 9 18338793528426797650
9896288 288 18045781445527518610
9981440 41 18334297599395227603

> <PUBCHEM_SHAPE_MULTIPOLES>
593.42
18.3
4.36
1.43
6.7
2.79
0.48
-22.57
-6.02
0.69
-0.81
1.87
-0.67
2.87

> <PUBCHEM_SHAPE_SELFOVERLAP>
1257.879

> <PUBCHEM_SHAPE_VOLUME>
332.4

> <PUBCHEM_COORDINATE_TYPE>
2
5
10

$$$$
