11842644
  -OEChem-07202400543D

 47 49  0     0  0  0  0  0  0999 V2000
    5.2038    0.0709   -0.7683 F   0  0  0  0  0  0  0  0  0  0  0  0
    3.7206   -1.7642    1.8535 F   0  0  0  0  0  0  0  0  0  0  0  0
    4.9113    0.0541    1.9458 F   0  0  0  0  0  0  0  0  0  0  0  0
    5.7635   -1.7689    1.1003 F   0  0  0  0  0  0  0  0  0  0  0  0
    3.7305   -1.5288   -2.3817 F   0  0  0  0  0  0  0  0  0  0  0  0
    3.0436   -2.7141   -0.6823 F   0  0  0  0  0  0  0  0  0  0  0  0
    5.1668   -2.5961   -1.1414 F   0  0  0  0  0  0  0  0  0  0  0  0
   -3.0112    2.4852    0.2701 O   0  0  0  0  0  0  0  0  0  0  0  0
    0.3936    4.5431    0.0759 O   0  0  0  0  0  0  0  0  0  0  0  0
   -1.9023    0.5022    0.5562 N   0  0  0  0  0  0  0  0  0  0  0  0
   -0.6981    2.4762   -0.0379 N   0  0  0  0  0  0  0  0  0  0  0  0
   -3.1157   -0.1460    0.8037 N   0  0  0  0  0  0  0  0  0  0  0  0
   -6.3225   -3.2236    0.1818 N   0  0  0  0  0  0  0  0  0  0  0  0
    0.5254    0.3699    0.3303 C   0  0  0  0  0  0  0  0  0  0  0  0
   -0.7125   -0.2547    0.8771 C   0  0  0  0  0  0  0  0  0  0  0  0
    0.5242    1.7099   -0.0734 C   0  0  0  0  0  0  0  0  0  0  0  0
    2.8914    0.1733   -0.1822 C   0  0  0  0  0  0  0  0  0  0  0  0
    4.1431   -0.6350   -0.2183 C   0  0  0  0  0  0  0  0  0  0  0  0
    1.7084   -0.3867    0.2880 C   0  0  0  0  0  0  0  0  0  0  0  0
    1.7274    2.2536   -0.5620 C   0  0  0  0  0  0  0  0  0  0  0  0
    2.8992    1.4934   -0.6121 C   0  0  0  0  0  0  0  0  0  0  0  0
   -1.9409    1.8647    0.2685 C   0  0  0  0  0  0  0  0  0  0  0  0
    4.6369   -1.0262    1.1849 C   0  0  0  0  0  0  0  0  0  0  0  0
    4.0173   -1.8827   -1.1087 C   0  0  0  0  0  0  0  0  0  0  0  0
   -0.6101    3.8739   -0.1806 C   0  0  0  0  0  0  0  0  0  0  0  0
   -3.6645   -0.6275   -0.4475 C   0  0  0  0  0  0  0  0  0  0  0  0
   -5.0172   -1.2526   -0.2640 C   0  0  0  0  0  0  0  0  0  0  0  0
   -1.8796    4.5662   -0.6184 C   0  0  0  0  0  0  0  0  0  0  0  0
   -6.1645   -0.4859   -0.3603 C   0  0  0  0  0  0  0  0  0  0  0  0
   -5.1365   -2.5994    0.0046 C   0  0  0  0  0  0  0  0  0  0  0  0
   -7.4034   -1.0922   -0.1843 C   0  0  0  0  0  0  0  0  0  0  0  0
   -7.4279   -2.4517    0.0824 C   0  0  0  0  0  0  0  0  0  0  0  0
   -0.8291   -1.2684    0.4747 H   0  0  0  0  0  0  0  0  0  0  0  0
   -0.6373   -0.3109    1.9697 H   0  0  0  0  0  0  0  0  0  0  0  0
    1.6761   -1.4134    0.6421 H   0  0  0  0  0  0  0  0  0  0  0  0
    1.8012    3.2481   -0.9872 H   0  0  0  0  0  0  0  0  0  0  0  0
    3.8032    1.9519   -1.0035 H   0  0  0  0  0  0  0  0  0  0  0  0
   -3.7469    0.5337    1.2279 H   0  0  0  0  0  0  0  0  0  0  0  0
   -2.9917   -1.3683   -0.9004 H   0  0  0  0  0  0  0  0  0  0  0  0
   -3.7529    0.1823   -1.1847 H   0  0  0  0  0  0  0  0  0  0  0  0
   -1.6033    5.5299   -1.0615 H   0  0  0  0  0  0  0  0  0  0  0  0
   -2.5228    4.7765    0.2395 H   0  0  0  0  0  0  0  0  0  0  0  0
   -2.3990    4.0089   -1.4024 H   0  0  0  0  0  0  0  0  0  0  0  0
   -6.1130    0.5788   -0.5685 H   0  0  0  0  0  0  0  0  0  0  0  0
   -4.2674   -3.2436    0.0919 H   0  0  0  0  0  0  0  0  0  0  0  0
   -8.3206   -0.5187   -0.2530 H   0  0  0  0  0  0  0  0  0  0  0  0
   -8.3688   -2.9721    0.2280 H   0  0  0  0  0  0  0  0  0  0  0  0
  1 18  1  0  0  0  0
  2 23  1  0  0  0  0
  3 23  1  0  0  0  0
  4 23  1  0  0  0  0
  5 24  1  0  0  0  0
  6 24  1  0  0  0  0
  7 24  1  0  0  0  0
  8 22  2  0  0  0  0
  9 25  2  0  0  0  0
 10 12  1  0  0  0  0
 10 15  1  0  0  0  0
 10 22  1  0  0  0  0
 11 16  1  0  0  0  0
 11 22  1  0  0  0  0
 11 25  1  0  0  0  0
 12 26  1  0  0  0  0
 12 38  1  0  0  0  0
 13 30  1  0  0  0  0
 13 32  2  0  0  0  0
 14 15  1  0  0  0  0
 14 16  2  0  0  0  0
 14 19  1  0  0  0  0
 15 33  1  0  0  0  0
 15 34  1  0  0  0  0
 16 20  1  0  0  0  0
 17 18  1  0  0  0  0
 17 19  2  0  0  0  0
 17 21  1  0  0  0  0
 18 23  1  0  0  0  0
 18 24  1  0  0  0  0
 19 35  1  0  0  0  0
 20 21  2  0  0  0  0
 20 36  1  0  0  0  0
 21 37  1  0  0  0  0
 25 28  1  0  0  0  0
 26 27  1  0  0  0  0
 26 39  1  0  0  0  0
 26 40  1  0  0  0  0
 27 29  1  0  0  0  0
 27 30  2  0  0  0  0
 28 41  1  0  0  0  0
 28 42  1  0  0  0  0
 28 43  1  0  0  0  0
 29 31  2  0  0  0  0
 29 44  1  0  0  0  0
 30 45  1  0  0  0  0
 31 32  1  0  0  0  0
 31 46  1  0  0  0  0
 32 47  1  0  0  0  0
M  END
> <PUBCHEM_COMPOUND_CID>
11842644

> <PUBCHEM_CONFORMER_RMSD>
1

> <PUBCHEM_CONFORMER_DIVERSEORDER>
1
21
13
20
9
34
17
38
27
35
36
33
29
12
30
5
25
23
11
28
15
39
37
32
22
6
26
19
10
31
2
3
7
8
24
16
4
18
14

> <PUBCHEM_MMFF94_PARTIAL_CHARGES>
40
1 -0.34
10 -0.35
11 -0.24
12 -0.64
13 -0.62
14 -0.14
15 0.44
16 0.12
17 -0.14
18 0.48
19 -0.15
2 -0.34
20 -0.15
21 -0.15
22 0.69
23 1.02
24 1.02
25 0.57
26 0.41
27 -0.14
28 0.06
29 -0.15
3 -0.34
30 0.16
31 -0.15
32 0.16
35 0.15
36 0.15
37 0.15
38 0.36
4 -0.34
44 0.15
45 0.15
46 0.15
47 0.15
5 -0.34
6 -0.34
7 -0.34
8 -0.57
9 -0.57

> <PUBCHEM_EFFECTIVE_ROTOR_COUNT>
7.6

> <PUBCHEM_PHARMACOPHORE_FEATURES>
7
1 12 donor
1 13 acceptor
1 8 acceptor
1 9 acceptor
6 10 11 14 15 16 22 rings
6 13 27 29 30 31 32 rings
6 14 16 17 19 20 21 rings

> <PUBCHEM_HEAVY_ATOM_COUNT>
32

> <PUBCHEM_ATOM_DEF_STEREO_COUNT>
0

> <PUBCHEM_ATOM_UDEF_STEREO_COUNT>
0

> <PUBCHEM_BOND_DEF_STEREO_COUNT>
0

> <PUBCHEM_BOND_UDEF_STEREO_COUNT>
0

> <PUBCHEM_ISOTOPIC_ATOM_COUNT>
0

> <PUBCHEM_COMPONENT_COUNT>
1

> <PUBCHEM_CACTVS_TAUTO_COUNT>
1

> <PUBCHEM_CONFORMER_ID>
00B4B45400000001

> <PUBCHEM_MMFF94_ENERGY>
89.3456

> <PUBCHEM_FEATURE_SELFOVERLAP>
35.546

> <PUBCHEM_SHAPE_FINGERPRINT>
10050765 1 18410009953458219249
10411042 1 18409164420135601705
10622 236 17679003924985477810
10673678 19 17100321347556151101
1200032 147 13182728304378166714
12107183 9 18341908385762150977
12166972 35 17821446889419814165
12342043 65 17559967519656087454
12422481 6 17489874817337062751
12516196 113 18409445921029633819
12623949 98 17632027359819506190
12788726 201 18334300846732549736
13540713 5 18337409187479992745
13782708 43 17845938407971206798
14068700 675 18260263036247693293
14347332 77 18334573512873871333
15183329 4 18335421283900460291
15419008 42 18196925570836383023
15927050 60 17619631727414645125
17492 89 18339362951122689790
17686467 74 18412252948888868688
1813 80 18412549825117005845
18222031 100 18411142441300509858
1979834 28 17417823867460937759
20028762 73 18413108368228987171
20775438 99 17760634164166884947
21478907 32 18410294688282867941
21703447 108 18410284843938407024
23536364 44 18189038847060820877
23559900 14 18265326399927635049
24771750 20 17322122573080146861
2838139 119 10737280290510058771
3004659 81 18260548960947653159
3103668 31 18188485758600874325
3388396 114 16952000364395145588
3421961 26 18268428117523777521
4144715 1 18189902101443745003
46194498 28 17677329566850960981
463206 1 18335139860062579971
59682541 52 14562795643390670491
6058803 2 17825391774269445336
613672 6 18410016563164455035
70251023 43 18410016528529948929
7970288 3 18410854365350085287
86090 222 16485879984678909439

> <PUBCHEM_SHAPE_MULTIPOLES>
575.97
16.33
4.76
1.17
20.55
5.52
0.01
-19.65
0.3
1.31
0.73
-1.97
-0.64
0.24

> <PUBCHEM_SHAPE_SELFOVERLAP>
1258.356

> <PUBCHEM_SHAPE_VOLUME>
310.3

> <PUBCHEM_COORDINATE_TYPE>
2
5
10

$$$$
