121450878
  -OEChem-07202400433D

 34 34  0     1  0  0  0  0  0999 V2000
    0.4935   -0.8636    0.4527 O   0  0  0  0  0  0  0  0  0  0  0  0
   -2.1514   -0.6752   -0.5286 O   0  0  0  0  0  0  0  0  0  0  0  0
    0.2382    2.7988    0.3179 O   0  0  0  0  0  0  0  0  0  0  0  0
   -2.5268    1.9628    0.2948 O   0  0  0  0  0  0  0  0  0  0  0  0
   -0.9964   -2.5130    1.2068 O   0  0  0  0  0  0  0  0  0  0  0  0
    3.1604   -0.2632    0.1670 O   0  0  0  0  0  0  0  0  0  0  0  0
   -4.3738   -0.1665   -0.1561 O   0  0  0  0  0  0  0  0  0  0  0  0
    4.6418    0.4398   -1.4605 O   0  0  0  0  0  0  0  0  0  0  0  0
   -0.1802    1.4563    0.0860 C   0  0  2  0  0  0  0  0  0  0  0  0
   -1.4737    1.1865    0.8591 C   0  0  2  0  0  0  0  0  0  0  0  0
    0.9276    0.4973    0.5437 C   0  0  2  0  0  0  0  0  0  0  0  0
   -1.8344   -0.2982    0.8151 C   0  0  2  0  0  0  0  0  0  0  0  0
   -0.6421   -1.1352    1.2774 C   0  0  2  0  0  0  0  0  0  0  0  0
    2.1805    0.6379   -0.3149 C   0  0  0  0  0  0  0  0  0  0  0  0
   -3.4646   -0.5572   -0.8757 C   0  0  0  0  0  0  0  0  0  0  0  0
    4.3572   -0.2630   -0.5002 C   0  0  0  0  0  0  0  0  0  0  0  0
   -3.6466   -0.9844   -2.3007 C   0  0  0  0  0  0  0  0  0  0  0  0
    5.2910   -1.2600    0.1163 C   0  0  0  0  0  0  0  0  0  0  0  0
   -0.3654    1.3538   -0.9899 H   0  0  0  0  0  0  0  0  0  0  0  0
   -1.3554    1.5145    1.8994 H   0  0  0  0  0  0  0  0  0  0  0  0
    1.2090    0.6968    1.5868 H   0  0  0  0  0  0  0  0  0  0  0  0
   -2.6884   -0.5111    1.4705 H   0  0  0  0  0  0  0  0  0  0  0  0
   -0.3966   -0.9059    2.3220 H   0  0  0  0  0  0  0  0  0  0  0  0
    2.5678    1.6620   -0.2686 H   0  0  0  0  0  0  0  0  0  0  0  0
    1.9505    0.3821   -1.3565 H   0  0  0  0  0  0  0  0  0  0  0  0
    0.4100    2.9004    1.2696 H   0  0  0  0  0  0  0  0  0  0  0  0
   -3.3274    1.7937    0.8204 H   0  0  0  0  0  0  0  0  0  0  0  0
   -0.4301   -2.9864    1.8397 H   0  0  0  0  0  0  0  0  0  0  0  0
   -3.0536   -0.3435   -2.9579 H   0  0  0  0  0  0  0  0  0  0  0  0
   -4.7004   -0.8865   -2.5769 H   0  0  0  0  0  0  0  0  0  0  0  0
   -3.3524   -2.0307   -2.4144 H   0  0  0  0  0  0  0  0  0  0  0  0
    5.4812   -0.9933    1.1589 H   0  0  0  0  0  0  0  0  0  0  0  0
    6.2412   -1.2506   -0.4252 H   0  0  0  0  0  0  0  0  0  0  0  0
    4.8604   -2.2621    0.0472 H   0  0  0  0  0  0  0  0  0  0  0  0
  1 11  1  0  0  0  0
  1 13  1  0  0  0  0
  2 12  1  0  0  0  0
  2 15  1  0  0  0  0
  3  9  1  0  0  0  0
  3 26  1  0  0  0  0
  4 10  1  0  0  0  0
  4 27  1  0  0  0  0
  5 13  1  0  0  0  0
  5 28  1  0  0  0  0
  6 14  1  0  0  0  0
  6 16  1  0  0  0  0
  7 15  2  0  0  0  0
  8 16  2  0  0  0  0
  9 10  1  0  0  0  0
  9 11  1  0  0  0  0
  9 19  1  0  0  0  0
 10 12  1  0  0  0  0
 10 20  1  0  0  0  0
 11 14  1  0  0  0  0
 11 21  1  0  0  0  0
 12 13  1  0  0  0  0
 12 22  1  0  0  0  0
 13 23  1  0  0  0  0
 14 24  1  0  0  0  0
 14 25  1  0  0  0  0
 15 17  1  0  0  0  0
 16 18  1  0  0  0  0
 17 29  1  0  0  0  0
 17 30  1  0  0  0  0
 17 31  1  0  0  0  0
 18 32  1  0  0  0  0
 18 33  1  0  0  0  0
 18 34  1  0  0  0  0
M  END
> <PUBCHEM_COMPOUND_CID>
121450878

> <PUBCHEM_CONFORMER_RMSD>
1

> <PUBCHEM_CONFORMER_DIVERSEORDER>
1
39
59
34
122
121
112
84
155
99
129
103
87
83
85
156
105
14
116
131
132
35
152
90
145
128
55
170
159
67
13
126
117
86
124
51
160
6
63
40
69
89
100
161
29
64
75
71
65
127
32
114
38
27
150
60
12
149
133
157
28
88
74
163
16
79
44
123
72
8
134
108
101
168
49
96
82
120
98
110
23
41
78
15
18
107
5
80
119
142
46
53
169
3
164
58
93
115
125
7
25
111
102
104
94
26
47
73
143
50
136
57
95
66
109
144
10
141
154
138
162
42
70
118
77
135
146
137
68
11
113
81
45
54
36
61
52
30
33
31
106
24
165
4
140
20
22
2
97
167
9
91
37
62
130
17
151
92
19
147
48
139
148
153
76
21
158
56
43
166

> <PUBCHEM_MMFF94_PARTIAL_CHARGES>
21
1 -0.56
10 0.28
11 0.28
12 0.28
13 0.56
14 0.28
15 0.66
16 0.66
17 0.06
18 0.06
2 -0.43
26 0.4
27 0.4
28 0.4
3 -0.68
4 -0.68
5 -0.68
6 -0.43
7 -0.57
8 -0.57
9 0.28

> <PUBCHEM_EFFECTIVE_ROTOR_COUNT>
6.2

> <PUBCHEM_PHARMACOPHORE_FEATURES>
10
1 1 acceptor
1 3 acceptor
1 3 donor
1 4 acceptor
1 4 donor
1 5 acceptor
1 5 donor
1 7 acceptor
1 8 acceptor
6 1 9 10 11 12 13 rings

> <PUBCHEM_HEAVY_ATOM_COUNT>
18

> <PUBCHEM_ATOM_DEF_STEREO_COUNT>
0

> <PUBCHEM_ATOM_UDEF_STEREO_COUNT>
5

> <PUBCHEM_BOND_DEF_STEREO_COUNT>
0

> <PUBCHEM_BOND_UDEF_STEREO_COUNT>
0

> <PUBCHEM_ISOTOPIC_ATOM_COUNT>
0

> <PUBCHEM_COMPONENT_COUNT>
1

> <PUBCHEM_CACTVS_TAUTO_COUNT>
4

> <PUBCHEM_CONFORMER_ID>
073D317E00000001

> <PUBCHEM_MMFF94_ENERGY>
36.6325

> <PUBCHEM_FEATURE_SELFOVERLAP>
50.798

> <PUBCHEM_SHAPE_FINGERPRINT>
10062212 137 18340764828089362514
10610426 29 16271354340029745007
11127187 94 18188500188635375186
11680986 33 18122344841792919568
12251169 10 9223228554951072075
12555020 224 18114461176387831610
12633257 1 12534214437391780023
13583140 156 14189303599751013570
14911166 2 18333730242931180931
15163728 17 15647885990878798583
16752209 62 18188198811165025184
16945 1 18263907973655483169
18186145 218 18116135827038092485
187816 3 18334574642017779475
19784866 140 18411128152503738463
19862831 5 17894908538321110066
200 152 18410572873256055550
20300324 65 18272370854139940760
20645476 183 16805321136419526090
20645477 70 17822295652641922418
20671657 53 18343017839004944269
20871999 31 18408886217744759020
21029758 11 18413388760799709752
21069387 34 17987799747058710143
21637258 2 16702006604869102319
22112679 90 18195788697013525705
22182313 1 17901380418254266145
22713019 99 18342172301899672687
23379529 103 17771620436774777719
23402539 116 18411980230595781644
23559900 14 18262520407535911600
25 1 18040704858311775259
2748010 2 17830734614299949985
2838139 119 15286176450938881191
3286 77 16988837311171433168
347723 3 18341609304980971627
4175511 318 16805326608218247710
568465 68 13829850291972781109
76465 3 17917702513797432670
90316 7 10879991328864267114

> <PUBCHEM_SHAPE_MULTIPOLES>
323.48
8.77
2
1.38
9.19
0.75
-0.5
-3.22
-4.13
-0.66
0.44
-0.94
-0.62
-0.78

> <PUBCHEM_SHAPE_SELFOVERLAP>
650.168

> <PUBCHEM_SHAPE_VOLUME>
186.2

> <PUBCHEM_COORDINATE_TYPE>
2
5
10

$$$$
