12151362
  -OEChem-07202400453D

 56 58  0     0  0  0  0  0  0999 V2000
    3.3545    0.1111    1.2982 O   0  0  0  0  0  0  0  0  0  0  0  0
   -5.5222   -0.2416   -0.2806 O   0  0  0  0  0  0  0  0  0  0  0  0
   -5.4937   -1.1017    1.8545 O   0  0  0  0  0  0  0  0  0  0  0  0
    1.3753    4.3073    1.1706 O   0  0  0  0  0  0  0  0  0  0  0  0
    2.0297    1.8168   -2.8098 O   0  0  0  0  0  0  0  0  0  0  0  0
    0.6367   -1.4891   -0.0674 N   0  0  0  0  0  0  0  0  0  0  0  0
    2.3658    2.2124    1.2561 N   0  0  0  0  0  0  0  0  0  0  0  0
    2.6982    0.9465   -0.7673 N   0  0  0  0  0  0  0  0  0  0  0  0
    1.5144   -2.0478    0.9139 C   0  0  0  0  0  0  0  0  0  0  0  0
    2.9286   -2.0717    0.4039 C   0  0  0  0  0  0  0  0  0  0  0  0
   -0.7457   -1.3149    0.1517 C   0  0  0  0  0  0  0  0  0  0  0  0
    3.7827   -0.9904    0.6202 C   0  0  0  0  0  0  0  0  0  0  0  0
    3.3835   -3.1916   -0.2923 C   0  0  0  0  0  0  0  0  0  0  0  0
   -1.5463   -0.7643   -0.8490 C   0  0  0  0  0  0  0  0  0  0  0  0
   -1.3123   -1.6943    1.3686 C   0  0  0  0  0  0  0  0  0  0  0  0
   -3.4803   -0.9724    0.5839 C   0  0  0  0  0  0  0  0  0  0  0  0
    5.0919   -1.0289    0.1404 C   0  0  0  0  0  0  0  0  0  0  0  0
   -2.9136   -0.5932   -0.6330 C   0  0  0  0  0  0  0  0  0  0  0  0
   -2.6796   -1.5231    1.5846 C   0  0  0  0  0  0  0  0  0  0  0  0
    4.6927   -3.2299   -0.7722 C   0  0  0  0  0  0  0  0  0  0  0  0
    5.5469   -2.1487   -0.5560 C   0  0  0  0  0  0  0  0  0  0  0  0
   -6.9321   -0.0148   -0.1806 C   0  0  0  0  0  0  0  0  0  0  0  0
   -4.9060   -0.7944    0.8089 C   0  0  0  0  0  0  0  0  0  0  0  0
   -7.4248    0.5993   -1.4820 C   0  0  0  0  0  0  0  0  0  0  0  0
    2.7812    1.1347    0.5636 C   0  0  0  0  0  0  0  0  0  0  0  0
   -8.9158    0.8828   -1.4439 C   0  0  0  0  0  0  0  0  0  0  0  0
    1.8124    3.1903    0.5093 C   0  0  0  0  0  0  0  0  0  0  0  0
    2.1345    1.9633   -1.4520 C   0  0  0  0  0  0  0  0  0  0  0  0
    1.6694    3.1203   -0.8614 C   0  0  0  0  0  0  0  0  0  0  0  0
    1.5483    4.3245    2.5828 C   0  0  0  0  0  0  0  0  0  0  0  0
    2.5258    0.6038   -3.3637 C   0  0  0  0  0  0  0  0  0  0  0  0
    1.4761   -1.4821    1.8533 H   0  0  0  0  0  0  0  0  0  0  0  0
    1.2126   -3.0743    1.1609 H   0  0  0  0  0  0  0  0  0  0  0  0
    1.0008   -1.2029   -0.9697 H   0  0  0  0  0  0  0  0  0  0  0  0
    2.7281   -4.0401   -0.4702 H   0  0  0  0  0  0  0  0  0  0  0  0
   -1.1156   -0.4640   -1.8010 H   0  0  0  0  0  0  0  0  0  0  0  0
   -0.7271   -2.1282    2.1737 H   0  0  0  0  0  0  0  0  0  0  0  0
    5.7639   -0.1910    0.3055 H   0  0  0  0  0  0  0  0  0  0  0  0
   -3.4976   -0.1605   -1.4404 H   0  0  0  0  0  0  0  0  0  0  0  0
   -3.1016   -1.8256    2.5395 H   0  0  0  0  0  0  0  0  0  0  0  0
    5.0468   -4.1014   -1.3150 H   0  0  0  0  0  0  0  0  0  0  0  0
    6.5661   -2.1785   -0.9298 H   0  0  0  0  0  0  0  0  0  0  0  0
   -7.1281    0.6649    0.6568 H   0  0  0  0  0  0  0  0  0  0  0  0
   -7.4385   -0.9695    0.0030 H   0  0  0  0  0  0  0  0  0  0  0  0
   -7.1941   -0.0736   -2.3165 H   0  0  0  0  0  0  0  0  0  0  0  0
   -6.8746    1.5265   -1.6823 H   0  0  0  0  0  0  0  0  0  0  0  0
   -9.4860   -0.0376   -1.2824 H   0  0  0  0  0  0  0  0  0  0  0  0
   -9.1613    1.5848   -0.6407 H   0  0  0  0  0  0  0  0  0  0  0  0
   -9.2426    1.3229   -2.3912 H   0  0  0  0  0  0  0  0  0  0  0  0
    1.2211    3.9210   -1.4360 H   0  0  0  0  0  0  0  0  0  0  0  0
    1.1529    5.2727    2.9589 H   0  0  0  0  0  0  0  0  0  0  0  0
    2.6092    4.2719    2.8491 H   0  0  0  0  0  0  0  0  0  0  0  0
    0.9863    3.5129    3.0571 H   0  0  0  0  0  0  0  0  0  0  0  0
    2.3796    0.6438   -4.4471 H   0  0  0  0  0  0  0  0  0  0  0  0
    1.9707   -0.2587   -2.9803 H   0  0  0  0  0  0  0  0  0  0  0  0
    3.5984    0.4931   -3.1718 H   0  0  0  0  0  0  0  0  0  0  0  0
  1 12  1  0  0  0  0
  1 25  1  0  0  0  0
  2 22  1  0  0  0  0
  2 23  1  0  0  0  0
  3 23  2  0  0  0  0
  4 27  1  0  0  0  0
  4 30  1  0  0  0  0
  5 28  1  0  0  0  0
  5 31  1  0  0  0  0
  6  9  1  0  0  0  0
  6 11  1  0  0  0  0
  6 34  1  0  0  0  0
  7 25  1  0  0  0  0
  7 27  2  0  0  0  0
  8 25  2  0  0  0  0
  8 28  1  0  0  0  0
  9 10  1  0  0  0  0
  9 32  1  0  0  0  0
  9 33  1  0  0  0  0
 10 12  1  0  0  0  0
 10 13  2  0  0  0  0
 11 14  2  0  0  0  0
 11 15  1  0  0  0  0
 12 17  2  0  0  0  0
 13 20  1  0  0  0  0
 13 35  1  0  0  0  0
 14 18  1  0  0  0  0
 14 36  1  0  0  0  0
 15 19  2  0  0  0  0
 15 37  1  0  0  0  0
 16 18  2  0  0  0  0
 16 19  1  0  0  0  0
 16 23  1  0  0  0  0
 17 21  1  0  0  0  0
 17 38  1  0  0  0  0
 18 39  1  0  0  0  0
 19 40  1  0  0  0  0
 20 21  2  0  0  0  0
 20 41  1  0  0  0  0
 21 42  1  0  0  0  0
 22 24  1  0  0  0  0
 22 43  1  0  0  0  0
 22 44  1  0  0  0  0
 24 26  1  0  0  0  0
 24 45  1  0  0  0  0
 24 46  1  0  0  0  0
 26 47  1  0  0  0  0
 26 48  1  0  0  0  0
 26 49  1  0  0  0  0
 27 29  1  0  0  0  0
 28 29  2  0  0  0  0
 29 50  1  0  0  0  0
 30 51  1  0  0  0  0
 30 52  1  0  0  0  0
 30 53  1  0  0  0  0
 31 54  1  0  0  0  0
 31 55  1  0  0  0  0
 31 56  1  0  0  0  0
M  END
> <PUBCHEM_COMPOUND_CID>
12151362

> <PUBCHEM_CONFORMER_RMSD>
1

> <PUBCHEM_CONFORMER_DIVERSEORDER>
1
19
64
78
81
58
32
40
73
71
105
115
80
48
47
86
35
38
91
99
55
45
62
28
13
85
67
93
63
65
111
3
109
50
113
106
29
118
112
54
68
39
53
46
11
79
27
4
104
5
89
84
103
16
59
23
75
31
76
101
2
116
96
60
110
44
94
43
107
61
102
56
72
15
95
88
69
34
77
52
17
42
83
74
70
33
7
9
41
98
108
51
90
6
14
92
36
24
20
30
100
22
117
57
66
12
8
97
25
114
10
21
82
87
18
49
26
37

> <PUBCHEM_MMFF94_PARTIAL_CHARGES>
39
1 -0.17
10 -0.14
11 0.1
12 0.08
13 -0.15
14 -0.15
15 -0.15
16 0.09
17 -0.15
18 -0.15
19 -0.15
2 -0.43
20 -0.15
21 -0.15
22 0.28
23 0.63
25 0.7
27 0.39
28 0.39
29 -0.15
3 -0.57
30 0.28
31 0.28
34 0.4
35 0.15
36 0.15
37 0.15
38 0.15
39 0.15
4 -0.36
40 0.15
41 0.15
42 0.15
5 -0.36
50 0.15
6 -0.87
7 -0.62
8 -0.62
9 0.51

> <PUBCHEM_EFFECTIVE_ROTOR_COUNT>
11

> <PUBCHEM_PHARMACOPHORE_FEATURES>
9
1 26 hydrophobe
1 3 acceptor
1 5 acceptor
1 6 cation
1 6 donor
3 7 8 25 cation
6 10 12 13 17 20 21 rings
6 11 14 15 16 18 19 rings
6 7 8 25 27 28 29 rings

> <PUBCHEM_HEAVY_ATOM_COUNT>
31

> <PUBCHEM_ATOM_DEF_STEREO_COUNT>
0

> <PUBCHEM_ATOM_UDEF_STEREO_COUNT>
0

> <PUBCHEM_BOND_DEF_STEREO_COUNT>
0

> <PUBCHEM_BOND_UDEF_STEREO_COUNT>
0

> <PUBCHEM_ISOTOPIC_ATOM_COUNT>
0

> <PUBCHEM_COMPONENT_COUNT>
1

> <PUBCHEM_CACTVS_TAUTO_COUNT>
2

> <PUBCHEM_CONFORMER_ID>
00B96A4200000001

> <PUBCHEM_MMFF94_ENERGY>
103.3512

> <PUBCHEM_FEATURE_SELFOVERLAP>
45.671

> <PUBCHEM_SHAPE_FINGERPRINT>
10763959 59 18260829280931543551
11115154 58 18269560446700938817
11582403 64 16267136755592547512
12156800 1 17480338611392428348
12166972 35 17917425406928991475
13878862 14 18263625377840209437
15419008 47 18113896010373412181
15420108 30 17839159051703013002
16988056 13 18409728473827221712
17138139 8 17188650219363592148
18335252 114 18341040840537455863
18365409 1 17619643384083389804
21033648 29 17749663082372586723
21133410 127 17681835442896128341
21133410 90 16987989480427825177
21987440 362 17901669598819966140
221357 26 18337388240707458843
23559900 14 18041000648393715819
249057 3 18413386523528196703
2838139 119 18341890784954594425
44317340 157 18341610473792506851
513532 50 17846227691276965716
5265222 85 17106245564347949828
54076057 255 16009039362344583071
58902169 19 17988630888472712559
59521099 67 18059282206648650361
6086070 43 18200603600023279703
6823239 73 16877947178005742150

> <PUBCHEM_SHAPE_MULTIPOLES>
593.68
16.11
4.5
2.21
42.95
5
1.03
-4.98
5.53
-7.15
-1.93
-0.38
1.71
1.94

> <PUBCHEM_SHAPE_SELFOVERLAP>
1262.542

> <PUBCHEM_SHAPE_VOLUME>
330

> <PUBCHEM_COORDINATE_TYPE>
2
5
10

$$$$
