123627
  -OEChem-07202400533D

 30 31  0     0  0  0  0  0  0999 V2000
   -5.8717    0.4701    0.2148 Cl  0  0  0  0  0  0  0  0  0  0  0  0
    3.6453   -1.8435    0.5198 O   0  0  0  0  0  0  0  0  0  0  0  0
    3.8484    1.1920   -1.2101 O   0  0  0  0  0  0  0  0  0  0  0  0
    3.7039    1.5980    1.0359 O   0  0  0  0  0  0  0  0  0  0  0  0
   -0.0419   -0.6540   -0.2140 N   0  0  0  0  0  0  0  0  0  0  0  0
    0.2276   -2.0025   -0.2201 N   0  0  0  0  0  0  0  0  0  0  0  0
    0.9641    0.3369   -0.2358 C   0  0  0  0  0  0  0  0  0  0  0  0
    0.5626    1.7494   -0.6176 C   0  0  0  0  0  0  0  0  0  0  0  0
    2.2615    0.0300   -0.0173 C   0  0  0  0  0  0  0  0  0  0  0  0
   -1.4442   -0.3841   -0.1109 C   0  0  0  0  0  0  0  0  0  0  0  0
    0.2663    2.5796    0.6082 C   0  0  0  0  0  0  0  0  0  0  0  0
    2.5552   -1.3999    0.1967 C   0  0  0  0  0  0  0  0  0  0  0  0
   -2.2155   -0.1977   -1.2642 C   0  0  0  0  0  0  0  0  0  0  0  0
   -2.0588   -0.3034    1.1445 C   0  0  0  0  0  0  0  0  0  0  0  0
    1.4490   -2.3660   -0.0296 C   0  0  0  0  0  0  0  0  0  0  0  0
    3.3413    1.0256    0.0275 C   0  0  0  0  0  0  0  0  0  0  0  0
   -3.5817    0.0655   -1.1636 C   0  0  0  0  0  0  0  0  0  0  0  0
   -3.4250   -0.0402    1.2449 C   0  0  0  0  0  0  0  0  0  0  0  0
   -4.1864    0.1442    0.0909 C   0  0  0  0  0  0  0  0  0  0  0  0
    1.3600    2.2373   -1.1910 H   0  0  0  0  0  0  0  0  0  0  0  0
   -0.2952    1.7562   -1.2969 H   0  0  0  0  0  0  0  0  0  0  0  0
    0.0032    3.6009    0.3124 H   0  0  0  0  0  0  0  0  0  0  0  0
    1.1299    2.6450    1.2775 H   0  0  0  0  0  0  0  0  0  0  0  0
   -0.5733    2.1809    1.1841 H   0  0  0  0  0  0  0  0  0  0  0  0
   -1.7568   -0.2589   -2.2481 H   0  0  0  0  0  0  0  0  0  0  0  0
   -1.4759   -0.4447    2.0514 H   0  0  0  0  0  0  0  0  0  0  0  0
    1.7326   -3.4300   -0.0195 H   0  0  0  0  0  0  0  0  0  0  0  0
   -4.1626    0.2068   -2.0714 H   0  0  0  0  0  0  0  0  0  0  0  0
   -3.8825    0.0188    2.2291 H   0  0  0  0  0  0  0  0  0  0  0  0
    4.5740    1.8520   -1.2260 H   0  0  0  0  0  0  0  0  0  0  0  0
  1 19  1  0  0  0  0
  2 12  2  0  0  0  0
  3 16  1  0  0  0  0
  3 30  1  0  0  0  0
  4 16  2  0  0  0  0
  5  6  1  0  0  0  0
  5  7  1  0  0  0  0
  5 10  1  0  0  0  0
  6 15  2  0  0  0  0
  7  8  1  0  0  0  0
  7  9  2  0  0  0  0
  8 11  1  0  0  0  0
  8 20  1  0  0  0  0
  8 21  1  0  0  0  0
  9 12  1  0  0  0  0
  9 16  1  0  0  0  0
 10 13  2  0  0  0  0
 10 14  1  0  0  0  0
 11 22  1  0  0  0  0
 11 23  1  0  0  0  0
 11 24  1  0  0  0  0
 12 15  1  0  0  0  0
 13 17  1  0  0  0  0
 13 25  1  0  0  0  0
 14 18  2  0  0  0  0
 14 26  1  0  0  0  0
 15 27  1  0  0  0  0
 17 19  2  0  0  0  0
 17 28  1  0  0  0  0
 18 19  1  0  0  0  0
 18 29  1  0  0  0  0
M  END
> <PUBCHEM_COMPOUND_CID>
123627

> <PUBCHEM_CONFORMER_RMSD>
0.6

> <PUBCHEM_CONFORMER_DIVERSEORDER>
1
5
4
3
2

> <PUBCHEM_MMFF94_PARTIAL_CHARGES>
24
1 -0.18
10 0.1
12 0.56
13 -0.15
14 -0.15
15 0.39
16 0.71
17 -0.15
18 -0.15
19 0.18
2 -0.57
25 0.15
26 0.15
27 0.06
28 0.15
29 0.15
3 -0.65
30 0.5
4 -0.57
5 -0.16
6 -0.49
7 -0.04
8 0.14
9 0.03

> <PUBCHEM_EFFECTIVE_ROTOR_COUNT>
3

> <PUBCHEM_PHARMACOPHORE_FEATURES>
8
1 11 hydrophobe
1 2 acceptor
1 3 acceptor
1 4 acceptor
1 6 acceptor
3 3 4 16 anion
6 10 13 14 17 18 19 rings
6 5 6 7 9 12 15 rings

> <PUBCHEM_HEAVY_ATOM_COUNT>
19

> <PUBCHEM_ATOM_DEF_STEREO_COUNT>
0

> <PUBCHEM_ATOM_UDEF_STEREO_COUNT>
0

> <PUBCHEM_BOND_DEF_STEREO_COUNT>
0

> <PUBCHEM_BOND_UDEF_STEREO_COUNT>
0

> <PUBCHEM_ISOTOPIC_ATOM_COUNT>
0

> <PUBCHEM_COMPONENT_COUNT>
1

> <PUBCHEM_CACTVS_TAUTO_COUNT>
4

> <PUBCHEM_CONFORMER_ID>
0001E2EB00000001

> <PUBCHEM_MMFF94_ENERGY>
65.716

> <PUBCHEM_FEATURE_SELFOVERLAP>
40.651

> <PUBCHEM_SHAPE_FINGERPRINT>
104564 63 18198352757739556804
10980938 120 18410291419400889878
11471102 20 18408604751436636399
11543360 7 15697720431915780708
12236239 1 17775282746966238407
13134695 92 18411695482949424245
13140716 1 18049438442243151648
14790565 3 18265064706822470196
15219456 202 17967533463047264903
15309172 13 18337391637978902854
15342168 16 18263368134451817213
15375358 24 17894347783095834007
16945 1 18335980982167739852
1813 80 17770795506896335390
18186145 218 18201158836072811180
18785283 64 17897174739239864365
19049666 15 17677885730581727119
19784866 34 18193559089328039668
200 152 18343016714609443671
20645476 183 17846494868545093911
20645477 70 18335981973946755423
20739085 24 18336278833506713860
21041028 32 18267584611384136117
21267235 1 18339931406849819919
22854114 59 18334016103338532591
23184049 59 18411698776983280582
2334 1 18265893738868881230
23493267 7 17530684320888683416
23557571 272 16732983089775577807
23559900 14 16588313747934845810
25 1 18409165545195175351
2748010 2 18263351504739328244
34934 24 18271522095519300276
350125 39 18337953381848581564
474 4 18128531750720092025
5104073 3 18408887334953039459
537710 114 18410295817426457876
633830 44 18131072687826914140
77492 1 17775563122357526783
8272917 22 18411424981787903535
9981440 41 16193087966785862456

> <PUBCHEM_SHAPE_MULTIPOLES>
365.31
8.84
2.15
1.09
7.48
0.05
0.04
1.18
-0.58
-2.45
-0.21
0.46
0.16
-0.17

> <PUBCHEM_SHAPE_SELFOVERLAP>
771.408

> <PUBCHEM_SHAPE_VOLUME>
205.5

> <PUBCHEM_COORDINATE_TYPE>
2
5
10

$$$$
