12613538
  -OEChem-07202400403D

 24 25  0     1  0  0  0  0  0999 V2000
   -1.9021   -2.4235    0.5672 O   0  0  0  0  0  0  0  0  0  0  0  0
   -1.6340   -0.4283    0.0334 N   0  0  0  0  0  0  0  0  0  0  0  0
   -1.7817   -1.6564   -0.3931 N   0  0  0  0  0  0  0  0  0  0  0  0
    3.0137   -0.3724   -0.8852 N   0  0  0  0  0  0  0  0  0  0  0  0
   -0.6919    0.4063   -0.7388 C   0  0  1  0  0  0  0  0  0  0  0  0
   -1.1836    1.8522   -0.5348 C   0  0  0  0  0  0  0  0  0  0  0  0
   -2.3431    1.7429    0.4433 C   0  0  0  0  0  0  0  0  0  0  0  0
   -2.8670    0.3388    0.2119 C   0  0  0  0  0  0  0  0  0  0  0  0
    0.7481    0.2129   -0.3027 C   0  0  0  0  0  0  0  0  0  0  0  0
    1.1251    0.4260    1.0147 C   0  0  0  0  0  0  0  0  0  0  0  0
    1.7149   -0.1811   -1.2080 C   0  0  0  0  0  0  0  0  0  0  0  0
    2.4522    0.2394    1.3854 C   0  0  0  0  0  0  0  0  0  0  0  0
    3.3494   -0.1568    0.4066 C   0  0  0  0  0  0  0  0  0  0  0  0
   -0.7778    0.1865   -1.8139 H   0  0  0  0  0  0  0  0  0  0  0  0
   -1.5601    2.2439   -1.4885 H   0  0  0  0  0  0  0  0  0  0  0  0
   -0.4206    2.5487   -0.1719 H   0  0  0  0  0  0  0  0  0  0  0  0
   -1.9785    1.8516    1.4721 H   0  0  0  0  0  0  0  0  0  0  0  0
   -3.1049    2.5083    0.2688 H   0  0  0  0  0  0  0  0  0  0  0  0
   -3.4588   -0.0104    1.0650 H   0  0  0  0  0  0  0  0  0  0  0  0
   -3.4956    0.3141   -0.6884 H   0  0  0  0  0  0  0  0  0  0  0  0
    0.4049    0.7364    1.7661 H   0  0  0  0  0  0  0  0  0  0  0  0
    1.4782   -0.3628   -2.2515 H   0  0  0  0  0  0  0  0  0  0  0  0
    2.7742    0.3988    2.4081 H   0  0  0  0  0  0  0  0  0  0  0  0
    4.3960   -0.3159    0.6443 H   0  0  0  0  0  0  0  0  0  0  0  0
  1  3  2  0  0  0  0
  2  3  1  0  0  0  0
  2  5  1  0  0  0  0
  2  8  1  0  0  0  0
  4 11  1  0  0  0  0
  4 13  2  0  0  0  0
  5  6  1  0  0  0  0
  5  9  1  0  0  0  0
  5 14  1  0  0  0  0
  6  7  1  0  0  0  0
  6 15  1  0  0  0  0
  6 16  1  0  0  0  0
  7  8  1  0  0  0  0
  7 17  1  0  0  0  0
  7 18  1  0  0  0  0
  8 19  1  0  0  0  0
  8 20  1  0  0  0  0
  9 10  1  0  0  0  0
  9 11  2  0  0  0  0
 10 12  2  0  0  0  0
 10 21  1  0  0  0  0
 11 22  1  0  0  0  0
 12 13  1  0  0  0  0
 12 23  1  0  0  0  0
 13 24  1  0  0  0  0
M  END
> <PUBCHEM_COMPOUND_CID>
12613538

> <PUBCHEM_CONFORMER_RMSD>
0.6

> <PUBCHEM_CONFORMER_DIVERSEORDER>
1
11
3
8
6
7
5
12
4
2
10
9

> <PUBCHEM_MMFF94_PARTIAL_CHARGES>
15
1 -0.16
10 -0.15
11 0.16
12 -0.15
13 0.16
2 -0.36
21 0.15
22 0.15
23 0.15
24 0.15
3 -0.01
4 -0.62
5 0.41
8 0.27
9 -0.14

> <PUBCHEM_EFFECTIVE_ROTOR_COUNT>
3

> <PUBCHEM_PHARMACOPHORE_FEATURES>
3
1 4 acceptor
5 2 5 6 7 8 rings
6 4 9 10 11 12 13 rings

> <PUBCHEM_HEAVY_ATOM_COUNT>
13

> <PUBCHEM_ATOM_DEF_STEREO_COUNT>
1

> <PUBCHEM_ATOM_UDEF_STEREO_COUNT>
0

> <PUBCHEM_BOND_DEF_STEREO_COUNT>
0

> <PUBCHEM_BOND_UDEF_STEREO_COUNT>
0

> <PUBCHEM_ISOTOPIC_ATOM_COUNT>
0

> <PUBCHEM_COMPONENT_COUNT>
1

> <PUBCHEM_CACTVS_TAUTO_COUNT>
1

> <PUBCHEM_CONFORMER_ID>
00C077A200000001

> <PUBCHEM_MMFF94_ENERGY>
31.3899

> <PUBCHEM_FEATURE_SELFOVERLAP>
15.223

> <PUBCHEM_SHAPE_FINGERPRINT>
11471102 22 17131833192094055386
124424 183 17774432768732849110
12500047 106 18339073775137488572
12716758 59 18341333271289929642
12932764 1 17603863386606211796
13024252 1 14634870812703811357
13294875 104 17049064971516658968
13538477 17 18040156231673229485
13581323 91 18335138665670761833
14648413 74 17988635324578154928
15219456 202 17847057783669245440
15775835 57 18263362495138652001
16945 1 18408321060119839373
17844478 74 17988926720807551440
19049666 15 17773044059328849342
20201158 50 17632577102463187164
20645464 45 18131061593752159033
20653085 51 16128092231101074753
20715346 28 17704349996172802540
20871998 184 18343024432096099031
21930827 45 18341895151728000408
23402539 116 18270665516232634629
23559900 14 18128540371795556486
25 1 17343227320385128569
276578 36 18121507860178047153
3248919 1 18342447149805071364
369184 2 16200143292351145133
63268167 104 15123499307572972360
77492 1 17458348519906320132
81228 2 18411416245919206417

> <PUBCHEM_SHAPE_MULTIPOLES>
246.72
4.89
1.7
1.14
1.84
0.69
-0.04
-0.02
-0.59
-1.87
-0.16
0.69
-0.06
0.3

> <PUBCHEM_SHAPE_SELFOVERLAP>
519.747

> <PUBCHEM_SHAPE_VOLUME>
139.2

> <PUBCHEM_COORDINATE_TYPE>
2
5
10

$$$$
