13363033
  -OEChem-07202400543D

 38 39  0     1  0  0  0  0  0999 V2000
    4.1642   -3.1044   -0.1775 Cl  0  0  0  0  0  0  0  0  0  0  0  0
    6.1603    1.7166    0.0797 F   0  0  0  0  0  0  0  0  0  0  0  0
    4.6717    2.9239   -0.9354 F   0  0  0  0  0  0  0  0  0  0  0  0
    4.6620    2.7886    1.2349 F   0  0  0  0  0  0  0  0  0  0  0  0
   -4.0725   -0.9703   -0.0387 O   0  0  0  0  0  0  0  0  0  0  0  0
    1.2853   -2.2619   -0.1260 O   0  0  0  0  0  0  0  0  0  0  0  0
   -5.4151    2.3282    0.3310 O   0  0  0  0  0  0  0  0  0  0  0  0
   -5.2735    0.9343   -1.5008 O   0  0  0  0  0  0  0  0  0  0  0  0
    1.6639    0.0105   -0.0034 N   0  0  0  0  0  0  0  0  0  0  0  0
   -4.4368    0.2097    0.6607 C   0  0  2  0  0  0  0  0  0  0  0  0
   -2.7393   -1.2919   -0.0604 C   0  0  0  0  0  0  0  0  0  0  0  0
   -0.0376   -1.9431   -0.1044 C   0  0  0  0  0  0  0  0  0  0  0  0
   -5.4013   -0.1769    1.7682 C   0  0  0  0  0  0  0  0  0  0  0  0
   -2.0751   -1.3871   -1.2775 C   0  0  0  0  0  0  0  0  0  0  0  0
   -2.0676   -1.5186    1.1349 C   0  0  0  0  0  0  0  0  0  0  0  0
   -0.7192   -1.7140   -1.2996 C   0  0  0  0  0  0  0  0  0  0  0  0
   -0.7117   -1.8453    1.1128 C   0  0  0  0  0  0  0  0  0  0  0  0
   -5.0756    1.1751   -0.3170 C   0  0  0  0  0  0  0  0  0  0  0  0
    2.1989   -1.2226   -0.0723 C   0  0  0  0  0  0  0  0  0  0  0  0
    3.9226    0.8716    0.0382 C   0  0  0  0  0  0  0  0  0  0  0  0
    3.5490   -1.5009   -0.0907 C   0  0  0  0  0  0  0  0  0  0  0  0
    4.4253   -0.4228   -0.0338 C   0  0  0  0  0  0  0  0  0  0  0  0
    2.5464    1.0331    0.0503 C   0  0  0  0  0  0  0  0  0  0  0  0
    4.8332    2.0461    0.1007 C   0  0  0  0  0  0  0  0  0  0  0  0
   -6.0573    3.3221   -0.4739 C   0  0  0  0  0  0  0  0  0  0  0  0
   -3.5593    0.7185    1.0819 H   0  0  0  0  0  0  0  0  0  0  0  0
   -4.9569   -0.9241    2.4335 H   0  0  0  0  0  0  0  0  0  0  0  0
   -5.6958    0.6890    2.3694 H   0  0  0  0  0  0  0  0  0  0  0  0
   -6.3117   -0.6242    1.3529 H   0  0  0  0  0  0  0  0  0  0  0  0
   -2.6026   -1.2089   -2.2102 H   0  0  0  0  0  0  0  0  0  0  0  0
   -2.5802   -1.4557    2.0900 H   0  0  0  0  0  0  0  0  0  0  0  0
   -0.2009   -1.7893   -2.2517 H   0  0  0  0  0  0  0  0  0  0  0  0
   -0.1877   -2.0255    2.0477 H   0  0  0  0  0  0  0  0  0  0  0  0
    5.4989   -0.5940   -0.0454 H   0  0  0  0  0  0  0  0  0  0  0  0
    2.0958    2.0193    0.1054 H   0  0  0  0  0  0  0  0  0  0  0  0
   -6.9999    2.9351   -0.8727 H   0  0  0  0  0  0  0  0  0  0  0  0
   -5.3947    3.6387   -1.2850 H   0  0  0  0  0  0  0  0  0  0  0  0
   -6.2730    4.1860    0.1605 H   0  0  0  0  0  0  0  0  0  0  0  0
  1 21  1  0  0  0  0
  2 24  1  0  0  0  0
  3 24  1  0  0  0  0
  4 24  1  0  0  0  0
  5 10  1  0  0  0  0
  5 11  1  0  0  0  0
  6 12  1  0  0  0  0
  6 19  1  0  0  0  0
  7 18  1  0  0  0  0
  7 25  1  0  0  0  0
  8 18  2  0  0  0  0
  9 19  1  0  0  0  0
  9 23  2  0  0  0  0
 10 13  1  0  0  0  0
 10 18  1  0  0  0  0
 10 26  1  0  0  0  0
 11 14  2  0  0  0  0
 11 15  1  0  0  0  0
 12 16  2  0  0  0  0
 12 17  1  0  0  0  0
 13 27  1  0  0  0  0
 13 28  1  0  0  0  0
 13 29  1  0  0  0  0
 14 16  1  0  0  0  0
 14 30  1  0  0  0  0
 15 17  2  0  0  0  0
 15 31  1  0  0  0  0
 16 32  1  0  0  0  0
 17 33  1  0  0  0  0
 19 21  2  0  0  0  0
 20 22  2  0  0  0  0
 20 23  1  0  0  0  0
 20 24  1  0  0  0  0
 21 22  1  0  0  0  0
 22 34  1  0  0  0  0
 23 35  1  0  0  0  0
 25 36  1  0  0  0  0
 25 37  1  0  0  0  0
 25 38  1  0  0  0  0
M  END
> <PUBCHEM_COMPOUND_CID>
13363033

> <PUBCHEM_CONFORMER_RMSD>
0.8

> <PUBCHEM_CONFORMER_DIVERSEORDER>
1
44
81
103
37
93
64
120
52
3
138
119
135
108
141
134
67
100
49
59
56
89
127
76
33
106
101
128
140
129
27
113
78
16
61
26
132
40
74
96
15
99
73
32
50
45
114
98
87
41
111
58
19
17
79
118
21
42
29
63
133
97
109
94
91
75
139
13
85
22
51
47
130
4
55
77
62
84
72
116
117
126
43
28
122
131
53
88
80
115
57
95
23
102
124
83
104
7
110
112
105
92
39
90
35
11
10
86
9
12
60
2
25
36
18
46
5
125
69
82
6
31
14
8
20
24
71
65
30
107
66
48
123
38
136
54
34
137
121
70
68

> <PUBCHEM_MMFF94_PARTIAL_CHARGES>
30
1 -0.18
10 0.34
11 0.08
12 0.08
14 -0.15
15 -0.15
16 -0.15
17 -0.15
18 0.66
19 0.39
2 -0.34
20 -0.14
21 0.18
22 -0.15
23 0.16
24 1.16
25 0.28
3 -0.34
30 0.15
31 0.15
32 0.15
33 0.15
34 0.15
35 0.15
4 -0.34
5 -0.36
6 -0.17
7 -0.43
8 -0.57
9 -0.62

> <PUBCHEM_EFFECTIVE_ROTOR_COUNT>
7

> <PUBCHEM_PHARMACOPHORE_FEATURES>
6
1 5 acceptor
1 6 acceptor
1 8 acceptor
1 9 acceptor
6 11 12 14 15 16 17 rings
6 9 19 20 21 22 23 rings

> <PUBCHEM_HEAVY_ATOM_COUNT>
25

> <PUBCHEM_ATOM_DEF_STEREO_COUNT>
1

> <PUBCHEM_ATOM_UDEF_STEREO_COUNT>
0

> <PUBCHEM_BOND_DEF_STEREO_COUNT>
0

> <PUBCHEM_BOND_UDEF_STEREO_COUNT>
0

> <PUBCHEM_ISOTOPIC_ATOM_COUNT>
0

> <PUBCHEM_COMPONENT_COUNT>
1

> <PUBCHEM_CACTVS_TAUTO_COUNT>
1

> <PUBCHEM_CONFORMER_ID>
00CBE75900000001

> <PUBCHEM_MMFF94_ENERGY>
68.8089

> <PUBCHEM_FEATURE_SELFOVERLAP>
30.505

> <PUBCHEM_SHAPE_FINGERPRINT>
10763959 59 18267590104430939310
11796584 16 10663824023165964967
12403259 415 18334305244842741051
12422481 6 17604140506349246644
12633257 1 16298948778746017590
12788726 201 17131563742857242273
13103583 49 12685383899003490341
13785724 45 17908425749764584986
13878862 14 18266720442315167764
14251764 38 18126008165771639041
14739800 52 17896876552824376009
14790565 3 18048042066992779420
14848178 5 8935000352369160837
15081414 286 18410303522719223076
15163728 17 17632032870346617615
15510800 12 10737281325724278569
17959699 21 18412825789307830074
17980427 26 18189036655821196382
19377110 9 13190343491430393918
20511986 3 17774991419645975634
20715895 44 18341046302992025379
20832881 197 18044096748452087130
21033648 144 18341338855037896163
21033648 29 17749398044356959403
21304253 335 18335144188951277764
21475661 188 18262238820314804351
22122407 14 18195816172156928905
23559900 14 18272654511309035410
23569914 2 17831251200172224837
2748736 6 18411690010934469721
2838139 119 18339356345679123493
2916195 48 18334016090627944675
350125 39 18409167676253308748
44062 13 10231492795523530659
5104073 3 18040151803631019995
57724786 102 18335137587976823150
60123966 16 18130229238075859462
633830 44 18335976502248376895

> <PUBCHEM_SHAPE_MULTIPOLES>
466.08
15.53
3.66
1.16
7.39
2.06
-0.07
13.75
-0.59
-2.29
0.22
1.29
-0.14
1.1

> <PUBCHEM_SHAPE_SELFOVERLAP>
985.386

> <PUBCHEM_SHAPE_VOLUME>
265

> <PUBCHEM_COORDINATE_TYPE>
2
5
10

$$$$
