135398733
  -OEChem-07202400523D

 29 29  0     0  0  0  0  0  0999 V2000
   -1.1484   -3.2551    0.1532 O   0  0  0  0  0  0  0  0  0  0  0  0
    2.3773   -0.2982   -0.0991 N   0  0  0  0  0  0  0  0  0  0  0  0
    0.5824   -1.7834    0.0280 N   0  0  0  0  0  0  0  0  0  0  0  0
    0.1661    0.4944   -0.0982 N   0  0  0  0  0  0  0  0  0  0  0  0
   -2.0652    1.2512   -0.0951 N   0  0  0  0  0  0  0  0  0  0  0  0
   -1.6376   -1.0255    0.0310 N   0  0  0  0  0  0  0  0  0  0  0  0
    2.9712    1.0008   -0.1891 C   0  0  0  0  0  0  0  0  0  0  0  0
    2.9609    1.6611    1.1835 C   0  0  0  0  0  0  0  0  0  0  0  0
    4.3885    0.8683   -0.7303 C   0  0  0  0  0  0  0  0  0  0  0  0
    1.0219   -0.4822   -0.0588 C   0  0  0  0  0  0  0  0  0  0  0  0
   -1.1832    0.1984   -0.0515 C   0  0  0  0  0  0  0  0  0  0  0  0
   -3.4799    1.0596   -0.0534 C   0  0  0  0  0  0  0  0  0  0  0  0
   -0.7644   -2.0885    0.0752 C   0  0  0  0  0  0  0  0  0  0  0  0
   -4.1897    2.3992   -0.0953 C   0  0  0  0  0  0  0  0  0  0  0  0
    2.4107    1.6291   -0.8925 H   0  0  0  0  0  0  0  0  0  0  0  0
    2.9897   -1.1045   -0.0145 H   0  0  0  0  0  0  0  0  0  0  0  0
    3.5030    1.0569    1.9200 H   0  0  0  0  0  0  0  0  0  0  0  0
    1.9417    1.7989    1.5591 H   0  0  0  0  0  0  0  0  0  0  0  0
    3.4346    2.6477    1.1424 H   0  0  0  0  0  0  0  0  0  0  0  0
    5.0148    0.2571   -0.0706 H   0  0  0  0  0  0  0  0  0  0  0  0
    4.3862    0.3922   -1.7172 H   0  0  0  0  0  0  0  0  0  0  0  0
    4.8613    1.8510   -0.8308 H   0  0  0  0  0  0  0  0  0  0  0  0
    1.2609   -2.5381    0.0582 H   0  0  0  0  0  0  0  0  0  0  0  0
   -3.8081    0.4548   -0.9064 H   0  0  0  0  0  0  0  0  0  0  0  0
   -3.7675    0.5337    0.8641 H   0  0  0  0  0  0  0  0  0  0  0  0
   -1.7008    2.1972   -0.1609 H   0  0  0  0  0  0  0  0  0  0  0  0
   -3.9013    3.0248    0.7563 H   0  0  0  0  0  0  0  0  0  0  0  0
   -3.9438    2.9471   -1.0113 H   0  0  0  0  0  0  0  0  0  0  0  0
   -5.2745    2.2578   -0.0631 H   0  0  0  0  0  0  0  0  0  0  0  0
  1 13  2  0  0  0  0
  2  7  1  0  0  0  0
  2 10  1  0  0  0  0
  2 16  1  0  0  0  0
  3 10  1  0  0  0  0
  3 13  1  0  0  0  0
  3 23  1  0  0  0  0
  4 10  2  0  0  0  0
  4 11  1  0  0  0  0
  5 11  1  0  0  0  0
  5 12  1  0  0  0  0
  5 26  1  0  0  0  0
  6 11  2  0  0  0  0
  6 13  1  0  0  0  0
  7  8  1  0  0  0  0
  7  9  1  0  0  0  0
  7 15  1  0  0  0  0
  8 17  1  0  0  0  0
  8 18  1  0  0  0  0
  8 19  1  0  0  0  0
  9 20  1  0  0  0  0
  9 21  1  0  0  0  0
  9 22  1  0  0  0  0
 12 14  1  0  0  0  0
 12 24  1  0  0  0  0
 12 25  1  0  0  0  0
 14 27  1  0  0  0  0
 14 28  1  0  0  0  0
 14 29  1  0  0  0  0
M  END
> <PUBCHEM_COMPOUND_CID>
135398733

> <PUBCHEM_CONFORMER_RMSD>
0.6

> <PUBCHEM_CONFORMER_DIVERSEORDER>
1
31
38
26
9
35
18
7
29
24
8
32
37
39
19
25
40
2
33
23
4
36
41
30
20
28
5
42
14
16
17
13
22
15
21
6
11
10
34
27
12
3

> <PUBCHEM_MMFF94_PARTIAL_CHARGES>
14
1 -0.57
10 0.56
11 0.71
12 0.37
13 0.84
16 0.4
2 -0.82
23 0.37
26 0.4
3 -0.49
4 -0.66
5 -0.82
6 -0.66
7 0.37

> <PUBCHEM_EFFECTIVE_ROTOR_COUNT>
4

> <PUBCHEM_PHARMACOPHORE_FEATURES>
7
1 1 acceptor
1 2 donor
1 3 donor
1 5 donor
1 6 donor
3 7 8 9 hydrophobe
6 3 4 6 10 11 13 rings

> <PUBCHEM_HEAVY_ATOM_COUNT>
14

> <PUBCHEM_ATOM_DEF_STEREO_COUNT>
0

> <PUBCHEM_ATOM_UDEF_STEREO_COUNT>
0

> <PUBCHEM_BOND_DEF_STEREO_COUNT>
0

> <PUBCHEM_BOND_UDEF_STEREO_COUNT>
0

> <PUBCHEM_ISOTOPIC_ATOM_COUNT>
0

> <PUBCHEM_COMPONENT_COUNT>
1

> <PUBCHEM_CACTVS_TAUTO_COUNT>
-1

> <PUBCHEM_CONFORMER_ID>
0812054D00000001

> <PUBCHEM_MMFF94_ENERGY>
22.896

> <PUBCHEM_FEATURE_SELFOVERLAP>
35.653

> <PUBCHEM_SHAPE_FINGERPRINT>
10608611 8 18199466756745579608
11543360 7 16128360602079980125
122479 349 18260834799442162617
12500047 106 18411701010793522996
12532896 13 18410293601270909951
13380535 76 18413387618353908318
14123255 52 18410291385046750981
14897335 6 18410570669436718214
15775835 57 18333170561669625776
16945 1 18193274319715514042
1741750 31 18412260649010622112
17834072 32 18336271223051902164
18186145 218 18060422399905667833
204376 136 18336551529939400141
20510252 161 18125724744920951330
20524608 308 18340770463134031510
20645477 56 18410578422253951844
20820808 20 18269551637738767369
21499 59 18336821988419903469
21524375 3 18340483361670794959
23532345 1 18120937201328411697
23558518 356 17972597959807808032
23559900 14 18272375287538135980
25 1 18271242720639263508
2748010 2 18336561425422854375
3071541 12 17979078176240973135
3071541 236 18189038953744016859
449060 62 18337956662707879493
474229 33 18408608084975005227
6049 1 17843413031672757552
6333449 129 18339360871899368071
633830 44 18200031712369620245
68521 5 18121782991609731495
7364860 26 17979916012570005735
81228 2 18046901851495098163
81539 233 18189614934923385933
84936 182 18055348042211664057

> <PUBCHEM_SHAPE_MULTIPOLES>
257.34
7
2.83
0.74
0.67
1.92
-0.09
-6.7
0.73
-2.12
-0.29
0.52
-0.24
0.36

> <PUBCHEM_SHAPE_SELFOVERLAP>
513.369

> <PUBCHEM_SHAPE_VOLUME>
151.6

> <PUBCHEM_COORDINATE_TYPE>
2
5
10

$$$$
