135424354
  -OEChem-07202400473D

 34 34  0     0  0  0  0  0  0999 V2000
    1.0019   -2.2285   -0.5159 O   0  0  0  0  0  0  0  0  0  0  0  0
   -1.0914   -1.3515   -0.1445 N   0  0  0  0  0  0  0  0  0  0  0  0
   -1.4679    0.9623   -0.0835 N   0  0  0  0  0  0  0  0  0  0  0  0
   -3.2406   -0.5342    0.2469 N   0  0  0  0  0  0  0  0  0  0  0  0
    2.2292    0.2890   -0.8081 C   0  0  0  0  0  0  0  0  0  0  0  0
    3.0920    0.0500    0.4274 C   0  0  0  0  0  0  0  0  0  0  0  0
    0.7687    0.1443   -0.4979 C   0  0  0  0  0  0  0  0  0  0  0  0
    4.5782    0.1695    0.0884 C   0  0  0  0  0  0  0  0  0  0  0  0
   -0.1233    1.1440   -0.3306 C   0  0  0  0  0  0  0  0  0  0  0  0
    0.2616   -1.2570   -0.3926 C   0  0  0  0  0  0  0  0  0  0  0  0
   -1.9220   -0.2546    0.0037 C   0  0  0  0  0  0  0  0  0  0  0  0
    5.4506   -0.1032    1.3035 C   0  0  0  0  0  0  0  0  0  0  0  0
    0.2697    2.5980   -0.3746 C   0  0  0  0  0  0  0  0  0  0  0  0
   -4.2198    0.4935    0.4236 C   0  0  0  0  0  0  0  0  0  0  0  0
   -5.5868   -0.1215    0.6539 C   0  0  0  0  0  0  0  0  0  0  0  0
    2.5044   -0.4216   -1.5985 H   0  0  0  0  0  0  0  0  0  0  0  0
    2.4513    1.2747   -1.2316 H   0  0  0  0  0  0  0  0  0  0  0  0
    2.8362    0.7790    1.2068 H   0  0  0  0  0  0  0  0  0  0  0  0
    2.8978   -0.9445    0.8469 H   0  0  0  0  0  0  0  0  0  0  0  0
    4.8383   -0.5413   -0.7047 H   0  0  0  0  0  0  0  0  0  0  0  0
    4.7940    1.1746   -0.2922 H   0  0  0  0  0  0  0  0  0  0  0  0
   -1.4985   -2.2784   -0.0639 H   0  0  0  0  0  0  0  0  0  0  0  0
    5.2373    0.6090    2.1071 H   0  0  0  0  0  0  0  0  0  0  0  0
    6.5086   -0.0103    1.0390 H   0  0  0  0  0  0  0  0  0  0  0  0
    5.2840   -1.1148    1.6873 H   0  0  0  0  0  0  0  0  0  0  0  0
    0.0568    3.0158   -1.3638 H   0  0  0  0  0  0  0  0  0  0  0  0
    1.3246    2.7650   -0.1411 H   0  0  0  0  0  0  0  0  0  0  0  0
   -0.3014    3.1700    0.3661 H   0  0  0  0  0  0  0  0  0  0  0  0
   -3.5388   -1.5036    0.3069 H   0  0  0  0  0  0  0  0  0  0  0  0
   -3.9593    1.1221    1.2827 H   0  0  0  0  0  0  0  0  0  0  0  0
   -4.2613    1.1356   -0.4636 H   0  0  0  0  0  0  0  0  0  0  0  0
   -5.8880   -0.7421   -0.1969 H   0  0  0  0  0  0  0  0  0  0  0  0
   -5.5883   -0.7551    1.5473 H   0  0  0  0  0  0  0  0  0  0  0  0
   -6.3398    0.6611    0.7892 H   0  0  0  0  0  0  0  0  0  0  0  0
  1 10  2  0  0  0  0
  2 10  1  0  0  0  0
  2 11  1  0  0  0  0
  2 22  1  0  0  0  0
  3  9  1  0  0  0  0
  3 11  2  0  0  0  0
  4 11  1  0  0  0  0
  4 14  1  0  0  0  0
  4 29  1  0  0  0  0
  5  6  1  0  0  0  0
  5  7  1  0  0  0  0
  5 16  1  0  0  0  0
  5 17  1  0  0  0  0
  6  8  1  0  0  0  0
  6 18  1  0  0  0  0
  6 19  1  0  0  0  0
  7  9  2  0  0  0  0
  7 10  1  0  0  0  0
  8 12  1  0  0  0  0
  8 20  1  0  0  0  0
  8 21  1  0  0  0  0
  9 13  1  0  0  0  0
 12 23  1  0  0  0  0
 12 24  1  0  0  0  0
 12 25  1  0  0  0  0
 13 26  1  0  0  0  0
 13 27  1  0  0  0  0
 13 28  1  0  0  0  0
 14 15  1  0  0  0  0
 14 30  1  0  0  0  0
 14 31  1  0  0  0  0
 15 32  1  0  0  0  0
 15 33  1  0  0  0  0
 15 34  1  0  0  0  0
M  END
> <PUBCHEM_COMPOUND_CID>
135424354

> <PUBCHEM_CONFORMER_RMSD>
0.6

> <PUBCHEM_CONFORMER_DIVERSEORDER>
1
27
39
19
42
24
41
37
44
35
43
21
9
33
40
26
5
28
45
31
29
11
30
18
32
12
36
13
25
38
20
22
23
14
10
17
3
7
4
34
15
16
6
2
8

> <PUBCHEM_MMFF94_PARTIAL_CHARGES>
13
1 -0.57
10 0.62
11 0.56
13 0.14
14 0.37
2 -0.49
22 0.37
29 0.4
3 -0.62
4 -0.82
5 0.14
7 -0.12
9 0.03

> <PUBCHEM_EFFECTIVE_ROTOR_COUNT>
5

> <PUBCHEM_PHARMACOPHORE_FEATURES>
5
1 1 acceptor
1 12 hydrophobe
1 2 donor
1 4 donor
6 2 3 7 9 10 11 rings

> <PUBCHEM_HEAVY_ATOM_COUNT>
15

> <PUBCHEM_ATOM_DEF_STEREO_COUNT>
0

> <PUBCHEM_ATOM_UDEF_STEREO_COUNT>
0

> <PUBCHEM_BOND_DEF_STEREO_COUNT>
0

> <PUBCHEM_BOND_UDEF_STEREO_COUNT>
0

> <PUBCHEM_ISOTOPIC_ATOM_COUNT>
0

> <PUBCHEM_COMPONENT_COUNT>
1

> <PUBCHEM_CACTVS_TAUTO_COUNT>
-1

> <PUBCHEM_CONFORMER_ID>
0812696200000001

> <PUBCHEM_MMFF94_ENERGY>
17.6088

> <PUBCHEM_FEATURE_SELFOVERLAP>
25.415

> <PUBCHEM_SHAPE_FINGERPRINT>
10130415 120 18187086190938488756
10465860 250 18040996245514011209
11132069 177 18342178868830620534
11401426 45 18343018895988411557
12119455 92 17132111338476341212
12251169 10 18411697703673947296
124424 183 17821729459708110817
12714333 28 13901906713184106162
13140716 1 18267025148986065001
13862211 1 18408881854163286303
14252887 29 18270413706283911119
15048467 5 14261633928111553161
15209294 21 17917720054380611721
16945 1 18339377326251375621
17846911 113 18341894091145293948
19784866 240 15792012230169043146
200 152 14923937938847707232
20510252 161 18271524191843395928
21637258 2 15791720936490899144
22182313 1 18266179418106229317
2297311 6 18412270502583510004
23402539 116 18271798038493633999
23402655 69 9367078709918165171
23559900 14 18200047230555667076
2748010 2 18122353376050822077
3250762 1 17762900957373010924
4072396 5 18408038494210781955
43471831 8 18261951826485005722
465052 167 17822300105720810850
5104073 3 18265627661534004737
53655031 270 18334574629312141250
5374978 207 18335135410824315672
53812653 166 18272370879835787561
69474 34 18271799164181838720

> <PUBCHEM_SHAPE_MULTIPOLES>
287.88
9.87
1.73
0.88
1.12
0.45
-0.12
-0.6
-4.87
-0.05
0.39
-0.58
-0.03
-0.06

> <PUBCHEM_SHAPE_SELFOVERLAP>
570.991

> <PUBCHEM_SHAPE_VOLUME>
170.5

> <PUBCHEM_COORDINATE_TYPE>
2
5
10

$$$$
