135438605
  -OEChem-07202400533D

 49 50  0     1  0  0  0  0  0999 V2000
    5.9970   -0.8411   -0.8086 S   0  0  0  0  0  0  0  0  0  0  0  0
   -0.9666    1.2866    1.7886 O   0  0  0  0  0  0  0  0  0  0  0  0
   -0.6099   -1.7547   -1.8348 O   0  0  0  0  0  0  0  0  0  0  0  0
   -4.2721    0.9294   -0.5481 O   0  0  0  0  0  0  0  0  0  0  0  0
   -2.8788    1.0222   -0.4438 N   0  0  0  0  0  0  0  0  0  0  0  0
    3.4972   -0.0829    0.1508 C   0  0  2  0  0  0  0  0  0  0  0  0
    2.0018    0.0643   -0.1419 C   0  0  2  0  0  0  0  0  0  0  0  0
    4.0589    1.2451    0.6792 C   0  0  0  0  0  0  0  0  0  0  0  0
    1.2389    0.4997    1.1132 C   0  0  0  0  0  0  0  0  0  0  0  0
    1.4201   -1.2368   -0.6854 C   0  0  0  0  0  0  0  0  0  0  0  0
    4.2275   -0.5598   -1.1086 C   0  0  0  0  0  0  0  0  0  0  0  0
    5.5406    1.1642    1.0411 C   0  0  0  0  0  0  0  0  0  0  0  0
    6.4254    0.7898   -0.1395 C   0  0  0  0  0  0  0  0  0  0  0  0
   -0.2538    0.4886    0.9106 C   0  0  0  0  0  0  0  0  0  0  0  0
   -0.0646   -1.1033   -0.9445 C   0  0  0  0  0  0  0  0  0  0  0  0
   -0.8713   -0.2200   -0.0506 C   0  0  0  0  0  0  0  0  0  0  0  0
   -2.3332   -0.1347   -0.1840 C   0  0  0  0  0  0  0  0  0  0  0  0
   -3.1190   -1.4310   -0.0259 C   0  0  0  0  0  0  0  0  0  0  0  0
   -3.5754   -1.6125    1.4195 C   0  0  0  0  0  0  0  0  0  0  0  0
   -4.3926   -2.8824    1.5898 C   0  0  0  0  0  0  0  0  0  0  0  0
   -4.7814    2.2237   -0.8299 C   0  0  0  0  0  0  0  0  0  0  0  0
   -6.2886    2.1457   -0.9470 C   0  0  0  0  0  0  0  0  0  0  0  0
    3.6234   -0.8442    0.9345 H   0  0  0  0  0  0  0  0  0  0  0  0
    1.8635    0.8429   -0.9075 H   0  0  0  0  0  0  0  0  0  0  0  0
    3.5472    1.5545    1.5952 H   0  0  0  0  0  0  0  0  0  0  0  0
    3.9060    2.0417   -0.0600 H   0  0  0  0  0  0  0  0  0  0  0  0
    1.5174    1.5270    1.3717 H   0  0  0  0  0  0  0  0  0  0  0  0
    1.4849   -0.1398    1.9696 H   0  0  0  0  0  0  0  0  0  0  0  0
    1.5762   -2.0746    0.0033 H   0  0  0  0  0  0  0  0  0  0  0  0
    1.8564   -1.4902   -1.6562 H   0  0  0  0  0  0  0  0  0  0  0  0
    3.8622   -1.5282   -1.4544 H   0  0  0  0  0  0  0  0  0  0  0  0
    4.1164    0.1551   -1.9311 H   0  0  0  0  0  0  0  0  0  0  0  0
    5.8621    2.1407    1.4235 H   0  0  0  0  0  0  0  0  0  0  0  0
    5.6838    0.4494    1.8615 H   0  0  0  0  0  0  0  0  0  0  0  0
    6.3423    1.5338   -0.9389 H   0  0  0  0  0  0  0  0  0  0  0  0
    7.4732    0.7645    0.1762 H   0  0  0  0  0  0  0  0  0  0  0  0
   -2.4957   -2.2859   -0.3067 H   0  0  0  0  0  0  0  0  0  0  0  0
   -3.9718   -1.4368   -0.7131 H   0  0  0  0  0  0  0  0  0  0  0  0
   -0.3427    1.6625    2.4327 H   0  0  0  0  0  0  0  0  0  0  0  0
   -2.7047   -1.6489    2.0851 H   0  0  0  0  0  0  0  0  0  0  0  0
   -4.1754   -0.7512    1.7360 H   0  0  0  0  0  0  0  0  0  0  0  0
   -5.2904   -2.8577    0.9640 H   0  0  0  0  0  0  0  0  0  0  0  0
   -3.8066   -3.7657    1.3165 H   0  0  0  0  0  0  0  0  0  0  0  0
   -4.7080   -2.9932    2.6319 H   0  0  0  0  0  0  0  0  0  0  0  0
   -4.3542    2.5906   -1.7701 H   0  0  0  0  0  0  0  0  0  0  0  0
   -4.5066    2.9110   -0.0217 H   0  0  0  0  0  0  0  0  0  0  0  0
   -6.5781    1.4511   -1.7425 H   0  0  0  0  0  0  0  0  0  0  0  0
   -6.7283    1.7666   -0.0184 H   0  0  0  0  0  0  0  0  0  0  0  0
   -6.7155    3.1288   -1.1641 H   0  0  0  0  0  0  0  0  0  0  0  0
  1 11  1  0  0  0  0
  1 13  1  0  0  0  0
  2 14  1  0  0  0  0
  2 39  1  0  0  0  0
  3 15  2  0  0  0  0
  4  5  1  0  0  0  0
  4 21  1  0  0  0  0
  5 17  2  0  0  0  0
  6  7  1  0  0  0  0
  6  8  1  0  0  0  0
  6 11  1  0  0  0  0
  6 23  1  0  0  0  0
  7  9  1  0  0  0  0
  7 10  1  0  0  0  0
  7 24  1  0  0  0  0
  8 12  1  0  0  0  0
  8 25  1  0  0  0  0
  8 26  1  0  0  0  0
  9 14  1  0  0  0  0
  9 27  1  0  0  0  0
  9 28  1  0  0  0  0
 10 15  1  0  0  0  0
 10 29  1  0  0  0  0
 10 30  1  0  0  0  0
 11 31  1  0  0  0  0
 11 32  1  0  0  0  0
 12 13  1  0  0  0  0
 12 33  1  0  0  0  0
 12 34  1  0  0  0  0
 13 35  1  0  0  0  0
 13 36  1  0  0  0  0
 14 16  2  0  0  0  0
 15 16  1  0  0  0  0
 16 17  1  0  0  0  0
 17 18  1  0  0  0  0
 18 19  1  0  0  0  0
 18 37  1  0  0  0  0
 18 38  1  0  0  0  0
 19 20  1  0  0  0  0
 19 40  1  0  0  0  0
 19 41  1  0  0  0  0
 20 42  1  0  0  0  0
 20 43  1  0  0  0  0
 20 44  1  0  0  0  0
 21 22  1  0  0  0  0
 21 45  1  0  0  0  0
 21 46  1  0  0  0  0
 22 47  1  0  0  0  0
 22 48  1  0  0  0  0
 22 49  1  0  0  0  0
M  END
> <PUBCHEM_COMPOUND_CID>
135438605

> <PUBCHEM_CONFORMER_RMSD>
1

> <PUBCHEM_CONFORMER_DIVERSEORDER>
1
63
67
31
55
15
59
53
4
35
58
70
73
29
83
79
18
74
16
32
39
28
50
69
85
40
52
45
51
25
37
75
48
60
72
36
7
61
46
54
10
26
71
41
81
6
24
56
8
13
43
9
76
33
77
5
42
2
82
34
78
11
22
62
27
49
68
38
20
65
12
47
84
44
80
66
64
19
23
3
57
17
21
30
14

> <PUBCHEM_MMFF94_PARTIAL_CHARGES>
16
1 -0.46
10 0.06
11 0.23
13 0.23
14 -0.06
15 0.49
16 0.03
17 0.37
18 0.06
2 -0.53
21 0.28
3 -0.57
39 0.45
4 -0.22
5 -0.51
9 0.14

> <PUBCHEM_EFFECTIVE_ROTOR_COUNT>
7.8

> <PUBCHEM_PHARMACOPHORE_FEATURES>
6
1 2 donor
1 20 hydrophobe
1 3 acceptor
1 5 acceptor
6 1 6 8 11 12 13 rings
6 7 9 10 14 15 16 rings

> <PUBCHEM_HEAVY_ATOM_COUNT>
22

> <PUBCHEM_ATOM_DEF_STEREO_COUNT>
0

> <PUBCHEM_ATOM_UDEF_STEREO_COUNT>
2

> <PUBCHEM_BOND_DEF_STEREO_COUNT>
1

> <PUBCHEM_BOND_UDEF_STEREO_COUNT>
0

> <PUBCHEM_ISOTOPIC_ATOM_COUNT>
0

> <PUBCHEM_COMPONENT_COUNT>
1

> <PUBCHEM_CACTVS_TAUTO_COUNT>
-1

> <PUBCHEM_CONFORMER_ID>
0812A10D00000001

> <PUBCHEM_MMFF94_ENERGY>
36.5133

> <PUBCHEM_FEATURE_SELFOVERLAP>
30.446

> <PUBCHEM_SHAPE_FINGERPRINT>
10906281 52 17987807285259233553
10912923 1 16732983158864292966
12236239 1 16081087095770413043
12403259 118 18260545679618915548
12403259 415 18342459278993064864
12596602 18 18114179774709882264
12633257 1 16515686645533372956
12670543 26 17632009758711197524
13583140 156 18409164428514448850
13675066 3 18341895238186567574
13760787 19 18040434365039134322
13760787 5 16988849388682642706
17844677 252 18188497985665246944
17980427 23 16588316011166138615
200 152 16271924887516750808
20645477 56 18186801336318440421
21033648 29 18271793662191251176
21267235 1 17846234263099323694
21424621 283 18191870016483131401
220451 1 16877940525729076770
22182313 1 18130243591545325999
22224240 67 14273463552689007449
23402539 116 17603584144848717708
23493267 7 18408601440212173243
23557571 272 18334307456718912335
23559900 14 18189345575870628198
5104073 3 17917721163146994618
5969126 39 18266171911511529375
59755656 520 17895188862531519351
90127 26 18411699919766224322

> <PUBCHEM_SHAPE_MULTIPOLES>
434.01
14.78
2.28
1.47
6.64
0.42
-0.16
-5.27
1.21
-4.75
-0.21
-0.26
0.31
2.98

> <PUBCHEM_SHAPE_SELFOVERLAP>
860.914

> <PUBCHEM_SHAPE_VOLUME>
258.9

> <PUBCHEM_COORDINATE_TYPE>
2
5
10

$$$$
