135474890
  -OEChem-07202400503D

 51 52  0     1  0  0  0  0  0999 V2000
    1.7313    0.6587   -2.0284 O   0  0  0  0  0  0  0  0  0  0  0  0
    1.3553   -0.9438    2.4221 O   0  0  0  0  0  0  0  0  0  0  0  0
    5.2024    0.3744    0.0012 O   0  0  0  0  0  0  0  0  0  0  0  0
    3.8423    0.7057   -0.0183 N   0  0  0  0  0  0  0  0  0  0  0  0
   -1.2494   -0.3688    0.0005 C   0  0  1  0  0  0  0  0  0  0  0  0
   -0.4791    0.4877   -1.0157 C   0  0  0  0  0  0  0  0  0  0  0  0
   -0.6659   -0.1784    1.4013 C   0  0  0  0  0  0  0  0  0  0  0  0
   -2.7412   -0.0963   -0.0435 C   0  0  0  0  0  0  0  0  0  0  0  0
    1.0130    0.3088   -0.8979 C   0  0  0  0  0  0  0  0  0  0  0  0
    0.8151   -0.4903    1.4138 C   0  0  0  0  0  0  0  0  0  0  0  0
    1.6249   -0.1672    0.2006 C   0  0  0  0  0  0  0  0  0  0  0  0
   -3.6261   -1.1146   -0.3978 C   0  0  0  0  0  0  0  0  0  0  0  0
   -3.2279    1.1726    0.2708 C   0  0  0  0  0  0  0  0  0  0  0  0
   -4.9977   -0.8641   -0.4380 C   0  0  0  0  0  0  0  0  0  0  0  0
   -4.5995    1.4231    0.2309 C   0  0  0  0  0  0  0  0  0  0  0  0
    3.0859   -0.3359    0.1964 C   0  0  0  0  0  0  0  0  0  0  0  0
   -5.4844    0.4047   -0.1235 C   0  0  0  0  0  0  0  0  0  0  0  0
   -3.1307   -2.4818   -0.7388 C   0  0  0  0  0  0  0  0  0  0  0  0
   -2.3017    2.2802    0.6535 C   0  0  0  0  0  0  0  0  0  0  0  0
    3.6197   -1.7438    0.4278 C   0  0  0  0  0  0  0  0  0  0  0  0
   -6.9509    0.6726   -0.1667 C   0  0  0  0  0  0  0  0  0  0  0  0
    3.7903   -2.4806   -0.8891 C   0  0  0  0  0  0  0  0  0  0  0  0
    5.9494    1.5570   -0.2391 C   0  0  0  0  0  0  0  0  0  0  0  0
    7.4252    1.2201   -0.2222 C   0  0  0  0  0  0  0  0  0  0  0  0
   -1.0366   -1.4090   -0.2702 H   0  0  0  0  0  0  0  0  0  0  0  0
   -0.6998    1.5530   -1.0621 H   0  0  0  0  0  0  0  0  0  0  0  0
   -0.7789    0.1206   -2.0096 H   0  0  0  0  0  0  0  0  0  0  0  0
   -1.1482   -0.9091    2.0660 H   0  0  0  0  0  0  0  0  0  0  0  0
   -0.7900    0.7862    1.8888 H   0  0  0  0  0  0  0  0  0  0  0  0
   -5.6922   -1.6549   -0.7119 H   0  0  0  0  0  0  0  0  0  0  0  0
   -4.9784    2.4120    0.4784 H   0  0  0  0  0  0  0  0  0  0  0  0
   -3.9575   -3.1551   -0.9933 H   0  0  0  0  0  0  0  0  0  0  0  0
   -2.6110   -2.9332    0.1129 H   0  0  0  0  0  0  0  0  0  0  0  0
   -2.4716   -2.4523   -1.6128 H   0  0  0  0  0  0  0  0  0  0  0  0
   -2.4983    3.1354   -0.0063 H   0  0  0  0  0  0  0  0  0  0  0  0
   -1.2274    2.1609    0.6446 H   0  0  0  0  0  0  0  0  0  0  0  0
   -2.5526    2.5992    1.6734 H   0  0  0  0  0  0  0  0  0  0  0  0
    2.9256   -2.3128    1.0536 H   0  0  0  0  0  0  0  0  0  0  0  0
    4.5666   -1.7068    0.9754 H   0  0  0  0  0  0  0  0  0  0  0  0
    1.1076    1.0098   -2.6866 H   0  0  0  0  0  0  0  0  0  0  0  0
   -7.4029    0.4454    0.8039 H   0  0  0  0  0  0  0  0  0  0  0  0
   -7.1551    1.7205   -0.4117 H   0  0  0  0  0  0  0  0  0  0  0  0
   -7.4409    0.0636   -0.9340 H   0  0  0  0  0  0  0  0  0  0  0  0
    4.4905   -1.9554   -1.5468 H   0  0  0  0  0  0  0  0  0  0  0  0
    4.1754   -3.4898   -0.7145 H   0  0  0  0  0  0  0  0  0  0  0  0
    2.8363   -2.5655   -1.4200 H   0  0  0  0  0  0  0  0  0  0  0  0
    5.6745    1.9735   -1.2148 H   0  0  0  0  0  0  0  0  0  0  0  0
    5.7280    2.2964    0.5388 H   0  0  0  0  0  0  0  0  0  0  0  0
    7.7113    0.7895    0.7431 H   0  0  0  0  0  0  0  0  0  0  0  0
    7.6583    0.4709   -0.9861 H   0  0  0  0  0  0  0  0  0  0  0  0
    8.0319    2.1114   -0.4050 H   0  0  0  0  0  0  0  0  0  0  0  0
  1  9  1  0  0  0  0
  1 40  1  0  0  0  0
  2 10  2  0  0  0  0
  3  4  1  0  0  0  0
  3 23  1  0  0  0  0
  4 16  2  3  0  0  0
  5  6  1  0  0  0  0
  5  7  1  0  0  0  0
  5  8  1  0  0  0  0
  5 25  1  0  0  0  0
  6  9  1  0  0  0  0
  6 26  1  0  0  0  0
  6 27  1  0  0  0  0
  7 10  1  0  0  0  0
  7 28  1  0  0  0  0
  7 29  1  0  0  0  0
  8 12  2  0  0  0  0
  8 13  1  0  0  0  0
  9 11  2  0  0  0  0
 10 11  1  0  0  0  0
 11 16  1  0  0  0  0
 12 14  1  0  0  0  0
 12 18  1  0  0  0  0
 13 15  2  0  0  0  0
 13 19  1  0  0  0  0
 14 17  2  0  0  0  0
 14 30  1  0  0  0  0
 15 17  1  0  0  0  0
 15 31  1  0  0  0  0
 16 20  1  0  0  0  0
 17 21  1  0  0  0  0
 18 32  1  0  0  0  0
 18 33  1  0  0  0  0
 18 34  1  0  0  0  0
 19 35  1  0  0  0  0
 19 36  1  0  0  0  0
 19 37  1  0  0  0  0
 20 22  1  0  0  0  0
 20 38  1  0  0  0  0
 20 39  1  0  0  0  0
 21 41  1  0  0  0  0
 21 42  1  0  0  0  0
 21 43  1  0  0  0  0
 22 44  1  0  0  0  0
 22 45  1  0  0  0  0
 22 46  1  0  0  0  0
 23 24  1  0  0  0  0
 23 47  1  0  0  0  0
 23 48  1  0  0  0  0
 24 49  1  0  0  0  0
 24 50  1  0  0  0  0
 24 51  1  0  0  0  0
M  END
> <PUBCHEM_COMPOUND_CID>
135474890

> <PUBCHEM_CONFORMER_RMSD>
0.8

> <PUBCHEM_CONFORMER_DIVERSEORDER>
1
8
7
11
12
2
10
6
5
9
4
3

> <PUBCHEM_MMFF94_PARTIAL_CHARGES>
25
1 -0.53
10 0.49
11 0.03
12 -0.14
13 -0.14
14 -0.15
15 -0.15
16 0.37
17 -0.14
18 0.14
19 0.14
2 -0.57
20 0.06
21 0.14
23 0.28
3 -0.22
30 0.15
31 0.15
4 -0.51
40 0.45
5 0.14
6 0.14
7 0.06
8 -0.14
9 -0.06

> <PUBCHEM_EFFECTIVE_ROTOR_COUNT>
5.6

> <PUBCHEM_PHARMACOPHORE_FEATURES>
6
1 1 donor
1 2 acceptor
1 22 hydrophobe
1 4 acceptor
6 5 6 7 9 10 11 rings
6 8 12 13 14 15 17 rings

> <PUBCHEM_HEAVY_ATOM_COUNT>
24

> <PUBCHEM_ATOM_DEF_STEREO_COUNT>
0

> <PUBCHEM_ATOM_UDEF_STEREO_COUNT>
1

> <PUBCHEM_BOND_DEF_STEREO_COUNT>
0

> <PUBCHEM_BOND_UDEF_STEREO_COUNT>
1

> <PUBCHEM_ISOTOPIC_ATOM_COUNT>
0

> <PUBCHEM_COMPONENT_COUNT>
1

> <PUBCHEM_CACTVS_TAUTO_COUNT>
-1

> <PUBCHEM_CONFORMER_ID>
08132ECA00000001

> <PUBCHEM_MMFF94_ENERGY>
68.4636

> <PUBCHEM_FEATURE_SELFOVERLAP>
30.446

> <PUBCHEM_SHAPE_FINGERPRINT>
10 15 13984663681274800132
10366900 7 16845570911796903667
10595046 47 18412824668463647546
10906281 52 17531825644329015436
11796584 16 18060138730274911959
12011746 2 15482673489336483485
12107183 9 17620759388310826930
12236239 1 18187080629683587345
12788726 201 16988288577454208483
13140716 1 16299246750671084616
13533116 47 18130222657843297247
13583140 156 17846774135075150982
13631057 29 18198902702500584879
13760787 19 18131066047860254390
14341114 176 18342743991868701517
14787075 74 18187364354907280008
15048467 5 18412261748648915180
17980427 23 17241333628625406502
1813 80 17386295289470841071
18335252 98 18410580613030235939
200 152 17749106678249920321
20511986 3 18187914084724179829
20681677 155 18334573555908232899
21641784 216 16199890430837399824
21792961 116 16988573390058233972
22224240 67 17022619805797837024
23402539 116 18411133675288050541
23536379 177 18342176652848963850
23557571 272 17847067661904525057
23559900 14 18201712994212450921
23569914 2 17620417616331926696
23569943 247 17389379321077481194
300161 21 18409727365524790054
3004659 81 18200594692488324678
335352 9 18272644663707888677
34797466 226 17988649609707829604
3545911 37 18413670218527686788
4073 2 18260553355031805458
4325135 7 18411981368831083188
474 4 17603873337692080052
5265222 85 17916865841341597814
59755656 520 17385438855886184282
67856867 119 18263647431859458117
7495541 125 17560792234448080233
9971528 1 17967819314727369958

> <PUBCHEM_SHAPE_MULTIPOLES>
471.32
15.37
2.04
1.28
7.75
0.69
-0.35
-4.92
2.44
0.38
0.22
0.62
0.18
-0.75

> <PUBCHEM_SHAPE_SELFOVERLAP>
980.584

> <PUBCHEM_SHAPE_VOLUME>
269.3

> <PUBCHEM_COORDINATE_TYPE>
2
5
10

$$$$
