135491830
  -OEChem-07202400433D

 51 51  0     1  0  0  0  0  0999 V2000
    4.5147    0.9647   -0.6893 S   0  0  0  0  0  0  0  0  0  0  0  0
   -0.4602    0.7936    1.7467 O   0  0  0  0  0  0  0  0  0  0  0  0
   -1.1042   -1.9897   -2.0409 O   0  0  0  0  0  0  0  0  0  0  0  0
   -3.8683    1.4497   -0.3671 O   0  0  0  0  0  0  0  0  0  0  0  0
   -2.4952    1.1760   -0.3563 N   0  0  0  0  0  0  0  0  0  0  0  0
    1.9789   -1.0157   -0.4467 C   0  0  2  0  0  0  0  0  0  0  0  0
    3.3949   -1.5581   -0.2679 C   0  0  0  0  0  0  0  0  0  0  0  0
    1.4253   -0.4843    0.8792 C   0  0  0  0  0  0  0  0  0  0  0  0
    1.0506   -2.0858   -1.0125 C   0  0  0  0  0  0  0  0  0  0  0  0
    4.3752   -0.5430    0.3355 C   0  0  1  0  0  0  0  0  0  0  0  0
   -0.0281   -0.0999    0.7818 C   0  0  0  0  0  0  0  0  0  0  0  0
   -0.3605   -1.5601   -1.1596 C   0  0  0  0  0  0  0  0  0  0  0  0
   -0.8601   -0.5614   -0.1679 C   0  0  0  0  0  0  0  0  0  0  0  0
    5.7638   -1.1592    0.4896 C   0  0  0  0  0  0  0  0  0  0  0  0
   -2.2549   -0.0965   -0.1940 C   0  0  0  0  0  0  0  0  0  0  0  0
   -3.3400   -1.1564   -0.0462 C   0  0  0  0  0  0  0  0  0  0  0  0
    5.1055    2.0865    0.5963 C   0  0  0  0  0  0  0  0  0  0  0  0
   -3.7478   -1.3110    1.4168 C   0  0  0  0  0  0  0  0  0  0  0  0
    5.3244    3.4769    0.0309 C   0  0  0  0  0  0  0  0  0  0  0  0
   -4.8558   -2.3382    1.5801 C   0  0  0  0  0  0  0  0  0  0  0  0
   -4.0391    2.8470   -0.5470 C   0  0  0  0  0  0  0  0  0  0  0  0
   -5.5191    3.1649   -0.5616 C   0  0  0  0  0  0  0  0  0  0  0  0
    1.9885   -0.1895   -1.1701 H   0  0  0  0  0  0  0  0  0  0  0  0
    3.7734   -1.9088   -1.2378 H   0  0  0  0  0  0  0  0  0  0  0  0
    3.3639   -2.4442    0.3807 H   0  0  0  0  0  0  0  0  0  0  0  0
    1.9857    0.4085    1.1777 H   0  0  0  0  0  0  0  0  0  0  0  0
    1.5391   -1.2273    1.6784 H   0  0  0  0  0  0  0  0  0  0  0  0
    1.0170   -2.9722   -0.3686 H   0  0  0  0  0  0  0  0  0  0  0  0
    1.4055   -2.3939   -2.0029 H   0  0  0  0  0  0  0  0  0  0  0  0
    4.0325   -0.2618    1.3364 H   0  0  0  0  0  0  0  0  0  0  0  0
    6.1926   -1.4432   -0.4784 H   0  0  0  0  0  0  0  0  0  0  0  0
    5.7082   -2.0682    1.0996 H   0  0  0  0  0  0  0  0  0  0  0  0
    6.4654   -0.4860    0.9915 H   0  0  0  0  0  0  0  0  0  0  0  0
   -2.9763   -2.1215   -0.4126 H   0  0  0  0  0  0  0  0  0  0  0  0
   -4.2017   -0.8982   -0.6712 H   0  0  0  0  0  0  0  0  0  0  0  0
    0.2756    0.9562    2.3611 H   0  0  0  0  0  0  0  0  0  0  0  0
    6.0484    1.7220    1.0125 H   0  0  0  0  0  0  0  0  0  0  0  0
    4.3668    2.1362    1.4026 H   0  0  0  0  0  0  0  0  0  0  0  0
   -2.8812   -1.6131    2.0169 H   0  0  0  0  0  0  0  0  0  0  0  0
   -4.0855   -0.3480    1.8175 H   0  0  0  0  0  0  0  0  0  0  0  0
    4.3966    3.8992   -0.3702 H   0  0  0  0  0  0  0  0  0  0  0  0
    5.6787    4.1489    0.8198 H   0  0  0  0  0  0  0  0  0  0  0  0
    6.0782    3.4742   -0.7639 H   0  0  0  0  0  0  0  0  0  0  0  0
   -5.7495   -2.0431    1.0210 H   0  0  0  0  0  0  0  0  0  0  0  0
   -4.5350   -3.3217    1.2224 H   0  0  0  0  0  0  0  0  0  0  0  0
   -5.1314   -2.4339    2.6350 H   0  0  0  0  0  0  0  0  0  0  0  0
   -3.5514    3.3857    0.2733 H   0  0  0  0  0  0  0  0  0  0  0  0
   -3.5837    3.1543   -1.4953 H   0  0  0  0  0  0  0  0  0  0  0  0
   -6.0221    2.6220   -1.3687 H   0  0  0  0  0  0  0  0  0  0  0  0
   -5.9903    2.8498    0.3753 H   0  0  0  0  0  0  0  0  0  0  0  0
   -5.6876    4.2367   -0.6986 H   0  0  0  0  0  0  0  0  0  0  0  0
  1 10  1  0  0  0  0
  1 17  1  0  0  0  0
  2 11  1  0  0  0  0
  2 36  1  0  0  0  0
  3 12  2  0  0  0  0
  4  5  1  0  0  0  0
  4 21  1  0  0  0  0
  5 15  2  0  0  0  0
  6  7  1  0  0  0  0
  6  8  1  0  0  0  0
  6  9  1  0  0  0  0
  6 23  1  0  0  0  0
  7 10  1  0  0  0  0
  7 24  1  0  0  0  0
  7 25  1  0  0  0  0
  8 11  1  0  0  0  0
  8 26  1  0  0  0  0
  8 27  1  0  0  0  0
  9 12  1  0  0  0  0
  9 28  1  0  0  0  0
  9 29  1  0  0  0  0
 10 14  1  0  0  0  0
 10 30  1  0  0  0  0
 11 13  2  0  0  0  0
 12 13  1  0  0  0  0
 13 15  1  0  0  0  0
 14 31  1  0  0  0  0
 14 32  1  0  0  0  0
 14 33  1  0  0  0  0
 15 16  1  0  0  0  0
 16 18  1  0  0  0  0
 16 34  1  0  0  0  0
 16 35  1  0  0  0  0
 17 19  1  0  0  0  0
 17 37  1  0  0  0  0
 17 38  1  0  0  0  0
 18 20  1  0  0  0  0
 18 39  1  0  0  0  0
 18 40  1  0  0  0  0
 19 41  1  0  0  0  0
 19 42  1  0  0  0  0
 19 43  1  0  0  0  0
 20 44  1  0  0  0  0
 20 45  1  0  0  0  0
 20 46  1  0  0  0  0
 21 22  1  0  0  0  0
 21 47  1  0  0  0  0
 21 48  1  0  0  0  0
 22 49  1  0  0  0  0
 22 50  1  0  0  0  0
 22 51  1  0  0  0  0
M  END
> <PUBCHEM_COMPOUND_CID>
135491830

> <PUBCHEM_CONFORMER_RMSD>
1

> <PUBCHEM_CONFORMER_DIVERSEORDER>
1
34
152
137
39
50
123
173
36
62
14
31
102
118
156
159
97
78
145
120
178
144
74
165
143
169
4
24
41
48
167
148
67
57
158
94
130
168
9
110
29
19
80
22
66
174
27
79
38
70
42
46
18
114
117
100
101
150
109
139
82
32
93
90
71
163
116
25
155
180
138
58
81
170
77
153
6
119
68
157
131
107
11
125
8
23
177
33
91
85
95
52
171
13
44
134
126
104
176
96
113
60
12
87
121
64
15
146
16
135
7
21
59
49
175
127
111
55
108
154
75
147
84
92
133
141
129
128
72
47
20
99
132
69
149
166
56
51
162
40
3
151
26
160
142
103
106
88
105
83
17
61
89
122
65
98
73
10
140
124
28
86
115
112
45
54
179
53
43
172
164
76
30
63
37
2
136
161
5
35

> <PUBCHEM_MMFF94_PARTIAL_CHARGES>
16
1 -0.46
10 0.23
11 -0.06
12 0.49
13 0.03
15 0.37
16 0.06
17 0.23
2 -0.53
21 0.28
3 -0.57
36 0.45
4 -0.22
5 -0.51
8 0.14
9 0.06

> <PUBCHEM_EFFECTIVE_ROTOR_COUNT>
9.6

> <PUBCHEM_PHARMACOPHORE_FEATURES>
8
1 14 hydrophobe
1 19 hydrophobe
1 2 donor
1 20 hydrophobe
1 3 acceptor
1 5 acceptor
4 1 7 10 17 hydrophobe
6 6 8 9 11 12 13 rings

> <PUBCHEM_HEAVY_ATOM_COUNT>
22

> <PUBCHEM_ATOM_DEF_STEREO_COUNT>
0

> <PUBCHEM_ATOM_UDEF_STEREO_COUNT>
2

> <PUBCHEM_BOND_DEF_STEREO_COUNT>
1

> <PUBCHEM_BOND_UDEF_STEREO_COUNT>
0

> <PUBCHEM_ISOTOPIC_ATOM_COUNT>
0

> <PUBCHEM_COMPONENT_COUNT>
1

> <PUBCHEM_CACTVS_TAUTO_COUNT>
-1

> <PUBCHEM_CONFORMER_ID>
081370F600000001

> <PUBCHEM_MMFF94_ENERGY>
34.0109

> <PUBCHEM_FEATURE_SELFOVERLAP>
40.749

> <PUBCHEM_SHAPE_FINGERPRINT>
11405975 8 18187926114874835082
12403259 118 18409719665070388954
12403259 415 18412270549353370436
12616971 3 18201153343427129862
12633257 1 15936692661763883300
12892183 10 18187085083042849630
12930653 34 18260834748409574523
13583140 156 18334857165125136354
14251764 38 18340770326012089280
14787075 74 18270684297713760858
17349148 13 14562530708375370274
17844677 252 18335708251717855778
17959699 21 18412539925470661144
18335252 114 18195798575496653596
20645477 56 18042971973926097069
20715895 44 18270674252117330820
21304253 335 18334579027559639260
22079108 93 17969784266792774954
23227448 37 18199185273152210108
23557571 272 18335149656850722991
23559900 14 18194401091743798122
2838139 119 18264195929321794493
5104073 3 18186796976794649680
633830 44 18261381257380608778
90127 26 18409453583209241130

> <PUBCHEM_SHAPE_MULTIPOLES>
434.01
13.27
3.57
1.35
5.22
3.44
0.03
8.26
2.2
-1.73
-0.42
-0.82
-0.68
2

> <PUBCHEM_SHAPE_SELFOVERLAP>
837.085

> <PUBCHEM_SHAPE_VOLUME>
266.3

> <PUBCHEM_COORDINATE_TYPE>
2
5
10

$$$$
