135585373
  -OEChem-07202400503D

 47 48  0     1  0  0  0  0  0999 V2000
    8.5437   -1.1260   -0.3202 Cl  0  0  0  0  0  0  0  0  0  0  0  0
   -6.6096   -1.1308   -0.6880 O   0  0  0  0  0  0  0  0  0  0  0  0
    0.5616   -1.3152    1.5859 O   0  0  0  0  0  0  0  0  0  0  0  0
   -0.1882    2.5116   -1.1158 O   0  0  0  0  0  0  0  0  0  0  0  0
    3.8072    0.0709   -0.3789 O   0  0  0  0  0  0  0  0  0  0  0  0
    2.4387   -0.2245   -0.3778 N   0  0  0  0  0  0  0  0  0  0  0  0
   -4.0320   -0.1604    0.1687 C   0  0  0  0  0  0  0  0  0  0  0  0
   -2.5332   -0.0245   -0.0842 C   0  0  2  0  0  0  0  0  0  0  0  0
   -4.8437    0.5182   -0.9407 C   0  0  0  0  0  0  0  0  0  0  0  0
   -4.4418   -1.6328    0.2864 C   0  0  0  0  0  0  0  0  0  0  0  0
   -1.7269   -0.6756    1.0441 C   0  0  0  0  0  0  0  0  0  0  0  0
   -2.1348    1.4400   -0.2372 C   0  0  0  0  0  0  0  0  0  0  0  0
   -6.3344    0.2683   -0.7468 C   0  0  0  0  0  0  0  0  0  0  0  0
   -5.9550   -1.7621    0.4119 C   0  0  0  0  0  0  0  0  0  0  0  0
   -0.2488   -0.4127    0.9192 C   0  0  0  0  0  0  0  0  0  0  0  0
   -0.6440    1.5789   -0.4551 C   0  0  0  0  0  0  0  0  0  0  0  0
    0.2712    0.6031    0.2087 C   0  0  0  0  0  0  0  0  0  0  0  0
    1.7316    0.7514    0.1234 C   0  0  0  0  0  0  0  0  0  0  0  0
    2.3268    2.0496    0.6540 C   0  0  0  0  0  0  0  0  0  0  0  0
    2.6855    1.9190    2.1238 C   0  0  0  0  0  0  0  0  0  0  0  0
    4.4983   -1.0361   -0.9367 C   0  0  0  0  0  0  0  0  0  0  0  0
    5.9610   -0.7349   -0.9443 C   0  0  0  0  0  0  0  0  0  0  0  0
    6.8669   -1.4759   -0.3006 C   0  0  0  0  0  0  0  0  0  0  0  0
   -4.2806    0.3363    1.1176 H   0  0  0  0  0  0  0  0  0  0  0  0
   -2.2806   -0.5434   -1.0212 H   0  0  0  0  0  0  0  0  0  0  0  0
   -4.5375    0.1180   -1.9154 H   0  0  0  0  0  0  0  0  0  0  0  0
   -4.6888    1.6011   -0.9544 H   0  0  0  0  0  0  0  0  0  0  0  0
   -3.9885   -2.1111    1.1599 H   0  0  0  0  0  0  0  0  0  0  0  0
   -4.1100   -2.1767   -0.6071 H   0  0  0  0  0  0  0  0  0  0  0  0
   -1.8758   -1.7609    1.0143 H   0  0  0  0  0  0  0  0  0  0  0  0
   -2.0653   -0.3222    2.0259 H   0  0  0  0  0  0  0  0  0  0  0  0
   -2.4098    2.0316    0.6434 H   0  0  0  0  0  0  0  0  0  0  0  0
   -2.6080    1.8828   -1.1194 H   0  0  0  0  0  0  0  0  0  0  0  0
   -6.7053    0.7517    0.1648 H   0  0  0  0  0  0  0  0  0  0  0  0
   -6.8943    0.6827   -1.5912 H   0  0  0  0  0  0  0  0  0  0  0  0
   -6.3167   -1.3264    1.3508 H   0  0  0  0  0  0  0  0  0  0  0  0
   -6.2400   -2.8190    0.4070 H   0  0  0  0  0  0  0  0  0  0  0  0
   -0.0091   -1.9317    2.0754 H   0  0  0  0  0  0  0  0  0  0  0  0
    3.2054    2.3334    0.0662 H   0  0  0  0  0  0  0  0  0  0  0  0
    1.6098    2.8687    0.5469 H   0  0  0  0  0  0  0  0  0  0  0  0
    3.4161    1.1190    2.2817 H   0  0  0  0  0  0  0  0  0  0  0  0
    3.1152    2.8539    2.4963 H   0  0  0  0  0  0  0  0  0  0  0  0
    1.8015    1.6849    2.7262 H   0  0  0  0  0  0  0  0  0  0  0  0
    4.2780   -1.9371   -0.3514 H   0  0  0  0  0  0  0  0  0  0  0  0
    4.1596   -1.1974   -1.9667 H   0  0  0  0  0  0  0  0  0  0  0  0
    6.2799    0.1343   -1.5146 H   0  0  0  0  0  0  0  0  0  0  0  0
    6.6333   -2.3548    0.2851 H   0  0  0  0  0  0  0  0  0  0  0  0
  1 23  1  0  0  0  0
  2 13  1  0  0  0  0
  2 14  1  0  0  0  0
  3 15  1  0  0  0  0
  3 38  1  0  0  0  0
  4 16  2  0  0  0  0
  5  6  1  0  0  0  0
  5 21  1  0  0  0  0
  6 18  2  0  0  0  0
  7  8  1  0  0  0  0
  7  9  1  0  0  0  0
  7 10  1  0  0  0  0
  7 24  1  0  0  0  0
  8 11  1  0  0  0  0
  8 12  1  0  0  0  0
  8 25  1  0  0  0  0
  9 13  1  0  0  0  0
  9 26  1  0  0  0  0
  9 27  1  0  0  0  0
 10 14  1  0  0  0  0
 10 28  1  0  0  0  0
 10 29  1  0  0  0  0
 11 15  1  0  0  0  0
 11 30  1  0  0  0  0
 11 31  1  0  0  0  0
 12 16  1  0  0  0  0
 12 32  1  0  0  0  0
 12 33  1  0  0  0  0
 13 34  1  0  0  0  0
 13 35  1  0  0  0  0
 14 36  1  0  0  0  0
 14 37  1  0  0  0  0
 15 17  2  0  0  0  0
 16 17  1  0  0  0  0
 17 18  1  0  0  0  0
 18 19  1  0  0  0  0
 19 20  1  0  0  0  0
 19 39  1  0  0  0  0
 19 40  1  0  0  0  0
 20 41  1  0  0  0  0
 20 42  1  0  0  0  0
 20 43  1  0  0  0  0
 21 22  1  0  0  0  0
 21 44  1  0  0  0  0
 21 45  1  0  0  0  0
 22 23  2  0  0  0  0
 22 46  1  0  0  0  0
 23 47  1  0  0  0  0
M  END
> <PUBCHEM_COMPOUND_CID>
135585373

> <PUBCHEM_CONFORMER_RMSD>
0.8

> <PUBCHEM_CONFORMER_DIVERSEORDER>
1
47
57
67
20
89
58
85
92
59
54
18
65
48
72
17
39
44
76
33
68
78
90
77
37
93
35
63
64
3
74
6
8
51
75
50
29
32
30
45
86
42
34
84
13
28
66
12
49
7
91
2
25
56
31
40
16
53
70
4
19
73
83
9
21
62
82
46
24
43
52
87
79
15
69
38
80
22
61
10
14
27
81
71
26
11
60
5
36
88
55
41
23

> <PUBCHEM_MMFF94_PARTIAL_CHARGES>
21
1 -0.14
11 0.14
12 0.06
13 0.28
14 0.28
15 -0.06
16 0.49
17 0.03
18 0.37
19 0.06
2 -0.56
21 0.42
22 -0.29
23 -0.01
3 -0.53
38 0.45
4 -0.57
46 0.15
47 0.15
5 -0.22
6 -0.51

> <PUBCHEM_EFFECTIVE_ROTOR_COUNT>
7.8

> <PUBCHEM_PHARMACOPHORE_FEATURES>
7
1 2 acceptor
1 20 hydrophobe
1 3 donor
1 4 acceptor
1 6 acceptor
6 2 7 9 10 13 14 rings
6 8 11 12 15 16 17 rings

> <PUBCHEM_HEAVY_ATOM_COUNT>
23

> <PUBCHEM_ATOM_DEF_STEREO_COUNT>
0

> <PUBCHEM_ATOM_UDEF_STEREO_COUNT>
1

> <PUBCHEM_BOND_DEF_STEREO_COUNT>
2

> <PUBCHEM_BOND_UDEF_STEREO_COUNT>
0

> <PUBCHEM_ISOTOPIC_ATOM_COUNT>
0

> <PUBCHEM_COMPONENT_COUNT>
1

> <PUBCHEM_CACTVS_TAUTO_COUNT>
-1

> <PUBCHEM_CONFORMER_ID>
0814DE5D00000001

> <PUBCHEM_MMFF94_ENERGY>
41.3217

> <PUBCHEM_FEATURE_SELFOVERLAP>
35.522

> <PUBCHEM_SHAPE_FINGERPRINT>
106641 1 12247672782029870687
10670039 82 17313098623119842981
11135609 99 17560514126852863327
11315181 36 18411706473591061824
12403259 118 15123523501313623049
12516196 113 17846218835302346794
12596602 18 12679468559993950135
12670543 26 17967533462867916839
12954195 1 18337391526668865061
13288520 33 18412266112071879013
13533116 47 17704071841169064304
13540713 4 17388272396362037961
13540713 5 17316467414819872305
13544592 145 18411417349330214755
13673619 4 18272091591335482372
13685833 64 18131914854120978870
13914758 101 16298666093195178190
14251752 14 17821727217439978262
14251764 18 12535340199485277734
14350574 20 18413390938400408404
15048467 5 8214141850302204982
15183329 4 16588023498698327230
15706992 2 11602823446045716047
1813 80 16486988263105334628
18681886 176 17531248399996478004
19784866 240 17775013374964547468
20105231 36 17967541212118398531
20374829 77 18407761425907368966
21033650 10 17313382271619439605
21049683 271 18272091626333972600
21150785 3 16515406270031372902
21267235 1 18187369870267306179
21637258 2 17632573846936181015
21792961 116 17167868547522949059
22224240 67 16056875819867970694
23198884 109 16081372951149574663
23402539 116 18186805759791688710
23559900 14 18336264655772320480
25147074 1 17532645733157004664
2838139 119 14201402681037002558
3004659 81 17822009822235550956
3286 77 18060424624872878368
335352 9 18260544507757274213
465052 167 17988931088810351998
56616090 284 18187089450844858298
59682541 35 14979949281865708134
59755656 215 18259982665030332386
59755656 520 14418140633965887218
6138700 20 18261112958688543271

> <PUBCHEM_SHAPE_MULTIPOLES>
446.74
18.75
2.08
1.25
17.75
0.79
0.41
-13.27
-5.16
0.46
0.24
0.26
0.32
1.65

> <PUBCHEM_SHAPE_SELFOVERLAP>
899.002

> <PUBCHEM_SHAPE_VOLUME>
261.9

> <PUBCHEM_COORDINATE_TYPE>
2
5
10

$$$$
