135779803
  -OEChem-07202400473D

 28 28  0     1  0  0  0  0  0999 V2000
   -4.2454    0.5604   -0.6732 O   0  0  0  0  0  0  0  0  0  0  0  0
    4.0107   -0.9983    0.8397 O   0  5  0  0  0  0  0  0  0  0  0  0
    3.8043   -0.8304   -1.3229 O   0  0  0  0  0  0  0  0  0  0  0  0
    0.0365    0.4243    0.2453 N   0  0  0  0  0  0  0  0  0  0  0  0
    2.0941    1.5361    0.1513 N   0  0  0  0  0  0  0  0  0  0  0  0
    1.9729   -0.8619   -0.0541 N   0  0  0  0  0  0  0  0  0  0  0  0
    3.3170   -0.8886   -0.1833 N   0  3  0  0  0  0  0  0  0  0  0  0
   -2.2993   -0.2134    0.4303 C   0  0  2  0  0  0  0  0  0  0  0  0
   -3.3330   -1.3184    0.4437 C   0  0  0  0  0  0  0  0  0  0  0  0
   -2.8134    0.6640   -0.6980 C   0  0  0  0  0  0  0  0  0  0  0  0
   -0.8757   -0.6961    0.2296 C   0  0  0  0  0  0  0  0  0  0  0  0
   -4.6069   -0.5498    0.1614 C   0  0  0  0  0  0  0  0  0  0  0  0
    1.4146    0.3199    0.1058 C   0  0  0  0  0  0  0  0  0  0  0  0
    1.5236    2.8524    0.3246 C   0  0  0  0  0  0  0  0  0  0  0  0
   -2.3750    0.3458    1.3736 H   0  0  0  0  0  0  0  0  0  0  0  0
   -3.3735   -1.8710    1.3865 H   0  0  0  0  0  0  0  0  0  0  0  0
   -3.1439   -2.0350   -0.3650 H   0  0  0  0  0  0  0  0  0  0  0  0
   -2.5286    1.7138   -0.5808 H   0  0  0  0  0  0  0  0  0  0  0  0
   -2.4737    0.3189   -1.6809 H   0  0  0  0  0  0  0  0  0  0  0  0
   -0.7827   -1.2347   -0.7210 H   0  0  0  0  0  0  0  0  0  0  0  0
   -0.6112   -1.3944    1.0322 H   0  0  0  0  0  0  0  0  0  0  0  0
   -5.3624   -1.1592   -0.3423 H   0  0  0  0  0  0  0  0  0  0  0  0
   -5.0399   -0.1472    1.0832 H   0  0  0  0  0  0  0  0  0  0  0  0
   -0.3734    1.3403    0.3963 H   0  0  0  0  0  0  0  0  0  0  0  0
    3.1059    1.5230    0.0543 H   0  0  0  0  0  0  0  0  0  0  0  0
    0.8266    3.0852   -0.4862 H   0  0  0  0  0  0  0  0  0  0  0  0
    2.3186    3.6043    0.3105 H   0  0  0  0  0  0  0  0  0  0  0  0
    1.0055    2.9293    1.2853 H   0  0  0  0  0  0  0  0  0  0  0  0
  1 10  1  0  0  0  0
  1 12  1  0  0  0  0
  2  7  1  0  0  0  0
  3  7  2  0  0  0  0
  4 11  1  0  0  0  0
  4 13  1  0  0  0  0
  4 24  1  0  0  0  0
  5 13  1  0  0  0  0
  5 14  1  0  0  0  0
  5 25  1  0  0  0  0
  6  7  1  0  0  0  0
  6 13  2  3  0  0  0
  8  9  1  0  0  0  0
  8 10  1  0  0  0  0
  8 11  1  0  0  0  0
  8 15  1  0  0  0  0
  9 12  1  0  0  0  0
  9 16  1  0  0  0  0
  9 17  1  0  0  0  0
 10 18  1  0  0  0  0
 10 19  1  0  0  0  0
 11 20  1  0  0  0  0
 11 21  1  0  0  0  0
 12 22  1  0  0  0  0
 12 23  1  0  0  0  0
 14 26  1  0  0  0  0
 14 27  1  0  0  0  0
 14 28  1  0  0  0  0
M  CHG  2   2  -1   7   1
M  END
> <PUBCHEM_COMPOUND_CID>
135779803

> <PUBCHEM_CONFORMER_RMSD>
0.6

> <PUBCHEM_CONFORMER_DIVERSEORDER>
1
376
180
261
319
357
359
303
278
267
262
200
212
351
264
285
232
28
89
275
297
41
318
291
311
258
312
228
98
218
321
248
64
242
84
361
117
194
274
290
279
340
225
349
227
374
63
73
220
292
181
17
334
115
122
373
257
40
330
327
186
30
197
354
244
331
71
369
266
344
260
97
159
57
323
282
256
140
216
123
170
182
355
305
43
82
70
272
270
371
16
27
166
219
243
298
22
217
187
364
362
139
324
109
104
191
124
114
151
223
352
198
86
208
113
175
168
309
263
363
368
304
238
169
269
42
92
313
50
176
196
271
173
277
358
252
44
4
332
328
365
339
135
377
127
379
299
163
167
65
69
247
288
193
190
204
366
347
265
102
126
224
68
295
164
75
154
49
185
346
234
106
156
249
12
294
338
341
239
342
67
211
302
229
183
268
155
149
192
25
333
138
370
317
160
241
94
119
255
259
314
162
280
33
143
141
286
209
54
276
118
281
289
343
195
55
335
6
153
26
5
2
129
236
367
315
60
103
152
136
47
326
337
189
235
372
88
93
61
142
214
35
131
207
178
221
95
51
375
81
226
253
85
320
29
15
251
39
230
310
353
199
237
130
83
296
100
90
273
150
20
23
110
77
19
99
378
356
9
325
201
348
101
215
245
21
172
158
56
80
147
205
157
210
336
133
203
62
233
202
38
120
24
350
76
137
184
87
91
322
37
66
111
7
34
11
52
307
174
112
250
240
306
132
316
74
287
3
48
301
36
31
171
13
231
128
284
177
10
144
108
179
107
222
246
188
148
134
96
293
206
46
32
116
125
283
360
161
345
14
18
72
79
53
146
254
300
145
213
59
58
78
105
8
308
165
45
121
329

> <PUBCHEM_MMFF94_PARTIAL_CHARGES>
14
1 -0.56
10 0.28
11 0.37
12 0.28
13 0.55
14 0.37
2 -0.52
24 0.4
25 0.4
3 -0.52
4 -0.82
5 -0.82
6 -0.5
7 1.09

> <PUBCHEM_EFFECTIVE_ROTOR_COUNT>
6

> <PUBCHEM_PHARMACOPHORE_FEATURES>
7
1 1 acceptor
1 2 acceptor
1 3 acceptor
1 4 donor
1 5 donor
4 4 5 6 13 cation
5 1 8 9 10 12 rings

> <PUBCHEM_HEAVY_ATOM_COUNT>
14

> <PUBCHEM_ATOM_DEF_STEREO_COUNT>
0

> <PUBCHEM_ATOM_UDEF_STEREO_COUNT>
1

> <PUBCHEM_BOND_DEF_STEREO_COUNT>
0

> <PUBCHEM_BOND_UDEF_STEREO_COUNT>
1

> <PUBCHEM_ISOTOPIC_ATOM_COUNT>
0

> <PUBCHEM_COMPONENT_COUNT>
1

> <PUBCHEM_CACTVS_TAUTO_COUNT>
-1

> <PUBCHEM_CONFORMER_ID>
0817D5DB00000001

> <PUBCHEM_MMFF94_ENERGY>
34.891

> <PUBCHEM_FEATURE_SELFOVERLAP>
35.651

> <PUBCHEM_SHAPE_FINGERPRINT>
10465860 250 18262789679982792938
10608611 8 18335133241612603937
12916754 54 18341615975265830867
12932764 1 17676476264159838035
13296908 3 18261391199976418539
13675066 3 17203612571009219515
14252887 29 18060421283704709578
14325111 11 18336826498140604907
15219456 202 18336543923383468449
17041 50 18409729551668580741
18186145 218 18333445456930395497
1986462 14 18113336406035775519
200 152 17917424329066298895
20233049 118 18186799149979412182
20339313 130 18272938232225912168
20645477 70 18343021124839373239
20671657 53 18341619183089286912
20871998 22 18200880565510922958
221490 88 18265059209020893659
22485316 2 18259701194506578154
22943178 12 18189615106764197931
23402539 116 18201147777165000845
23532345 12 17703800197372520049
3248919 1 17203059564005224175
58051976 100 18411136974366863439
6049 1 17969514864705077457
7364860 26 18271246148397887560
81228 2 18052831247527092512
93112 12 18409448107109906575
9709674 26 18191024719220568187
9971528 1 17917432003930120848

> <PUBCHEM_SHAPE_MULTIPOLES>
250.58
8.73
1.85
0.83
2.47
1.52
0.12
-2.6
0.8
-1.62
-0.21
-0.24
-0.09
0.7

> <PUBCHEM_SHAPE_SELFOVERLAP>
491.968

> <PUBCHEM_SHAPE_VOLUME>
151

> <PUBCHEM_COORDINATE_TYPE>
2
5
10

$$$$
