152031
  -OEChem-07202400533D

 33 33  0     1  0  0  0  0  0999 V2000
    0.9160    1.6209    0.0193 O   0  0  0  0  0  0  0  0  0  0  0  0
    2.4055   -0.2930   -1.2588 O   0  0  0  0  0  0  0  0  0  0  0  0
    0.2499   -0.3624    0.9425 O   0  0  0  0  0  0  0  0  0  0  0  0
    3.6303   -0.5823    0.6911 N   0  0  0  0  0  0  0  0  0  0  0  0
   -1.2455    1.0385   -0.1894 N   0  0  0  0  0  0  0  0  0  0  0  0
    2.2386    1.3845    0.4722 C   0  0  1  0  0  0  0  0  0  0  0  0
    2.7559    0.0934   -0.1458 C   0  0  0  0  0  0  0  0  0  0  0  0
    3.0996    2.5703    0.0667 C   0  0  0  0  0  0  0  0  0  0  0  0
    4.2335   -1.8430    0.3278 C   0  0  0  0  0  0  0  0  0  0  0  0
   -2.4745    0.3450   -0.1099 C   0  0  0  0  0  0  0  0  0  0  0  0
    3.7800   -2.2914   -1.0512 C   0  0  0  0  0  0  0  0  0  0  0  0
   -0.0189    0.6568    0.3185 C   0  0  0  0  0  0  0  0  0  0  0  0
   -3.6055    0.8985   -0.6886 C   0  0  0  0  0  0  0  0  0  0  0  0
   -2.5247   -0.8751    0.5454 C   0  0  0  0  0  0  0  0  0  0  0  0
   -4.8184    0.2140   -0.6100 C   0  0  0  0  0  0  0  0  0  0  0  0
   -3.7375   -1.5596    0.6240 C   0  0  0  0  0  0  0  0  0  0  0  0
   -4.8843   -1.0150    0.0463 C   0  0  0  0  0  0  0  0  0  0  0  0
    2.2280    1.3108    1.5667 H   0  0  0  0  0  0  0  0  0  0  0  0
    2.7015    3.4984    0.4903 H   0  0  0  0  0  0  0  0  0  0  0  0
    3.1067    2.6941   -1.0222 H   0  0  0  0  0  0  0  0  0  0  0  0
    4.1340    2.4438    0.4012 H   0  0  0  0  0  0  0  0  0  0  0  0
    5.3195   -1.7132    0.3589 H   0  0  0  0  0  0  0  0  0  0  0  0
    3.9530   -2.5771    1.0893 H   0  0  0  0  0  0  0  0  0  0  0  0
    3.8690   -0.1860    1.5952 H   0  0  0  0  0  0  0  0  0  0  0  0
    2.7079   -2.5084   -1.1026 H   0  0  0  0  0  0  0  0  0  0  0  0
    4.1104   -1.6221   -1.8523 H   0  0  0  0  0  0  0  0  0  0  0  0
    4.2706   -3.2498   -1.2664 H   0  0  0  0  0  0  0  0  0  0  0  0
   -1.2698    1.9280   -0.6821 H   0  0  0  0  0  0  0  0  0  0  0  0
   -3.5652    1.8551   -1.2022 H   0  0  0  0  0  0  0  0  0  0  0  0
   -1.6812   -1.3593    1.0157 H   0  0  0  0  0  0  0  0  0  0  0  0
   -5.7115    0.6380   -1.0598 H   0  0  0  0  0  0  0  0  0  0  0  0
   -3.7903   -2.5168    1.1346 H   0  0  0  0  0  0  0  0  0  0  0  0
   -5.8286   -1.5479    0.1075 H   0  0  0  0  0  0  0  0  0  0  0  0
  1  6  1  0  0  0  0
  1 12  1  0  0  0  0
  2  7  2  0  0  0  0
  3 12  2  0  0  0  0
  4  7  1  0  0  0  0
  4  9  1  0  0  0  0
  4 24  1  0  0  0  0
  5 10  1  0  0  0  0
  5 12  1  0  0  0  0
  5 28  1  0  0  0  0
  6  7  1  0  0  0  0
  6  8  1  0  0  0  0
  6 18  1  0  0  0  0
  8 19  1  0  0  0  0
  8 20  1  0  0  0  0
  8 21  1  0  0  0  0
  9 11  1  0  0  0  0
  9 22  1  0  0  0  0
  9 23  1  0  0  0  0
 10 13  2  0  0  0  0
 10 14  1  0  0  0  0
 11 25  1  0  0  0  0
 11 26  1  0  0  0  0
 11 27  1  0  0  0  0
 13 15  1  0  0  0  0
 13 29  1  0  0  0  0
 14 16  2  0  0  0  0
 14 30  1  0  0  0  0
 15 17  2  0  0  0  0
 15 31  1  0  0  0  0
 16 17  1  0  0  0  0
 16 32  1  0  0  0  0
 17 33  1  0  0  0  0
M  END
> <PUBCHEM_COMPOUND_CID>
152031

> <PUBCHEM_CONFORMER_RMSD>
0.8

> <PUBCHEM_CONFORMER_DIVERSEORDER>
1
29
31
28
7
25
4
36
17
15
24
21
35
16
23
26
14
2
33
18
3
27
9
20
6
5
32
13
11
34
19
30
8
12
10
22

> <PUBCHEM_MMFF94_PARTIAL_CHARGES>
22
1 -0.43
10 0.12
12 0.78
13 -0.15
14 -0.15
15 -0.15
16 -0.15
17 -0.15
2 -0.57
24 0.37
28 0.37
29 0.15
3 -0.57
30 0.15
31 0.15
32 0.15
33 0.15
4 -0.73
5 -0.55
6 0.34
7 0.57
9 0.3

> <PUBCHEM_EFFECTIVE_ROTOR_COUNT>
7

> <PUBCHEM_PHARMACOPHORE_FEATURES>
5
1 2 acceptor
1 3 acceptor
1 4 donor
1 5 donor
6 10 13 14 15 16 17 rings

> <PUBCHEM_HEAVY_ATOM_COUNT>
17

> <PUBCHEM_ATOM_DEF_STEREO_COUNT>
1

> <PUBCHEM_ATOM_UDEF_STEREO_COUNT>
0

> <PUBCHEM_BOND_DEF_STEREO_COUNT>
0

> <PUBCHEM_BOND_UDEF_STEREO_COUNT>
0

> <PUBCHEM_ISOTOPIC_ATOM_COUNT>
0

> <PUBCHEM_COMPONENT_COUNT>
1

> <PUBCHEM_CACTVS_TAUTO_COUNT>
4

> <PUBCHEM_CONFORMER_ID>
000251DF00000001

> <PUBCHEM_MMFF94_ENERGY>
45.6971

> <PUBCHEM_FEATURE_SELFOVERLAP>
25.372

> <PUBCHEM_SHAPE_FINGERPRINT>
10912923 1 17417534721930630905
11128504 68 15575004961088879343
11405975 8 18412547591813269913
12032990 46 18408041831817141417
12363563 72 18269847440700048998
12596602 18 15338824378859359567
12616999 72 18262524809471318628
13255334 9 18335987570452802387
13296908 3 18336545005810205089
13533116 47 18202284736385887867
13544592 145 18260546710584866837
13955234 65 18271524320629098664
14252887 29 18060136514440421834
14341114 328 13901892402548592310
14866123 147 17693099565411307369
15196674 1 18335418006581450395
15352361 1 18339643309355500078
15477762 27 18413108342933014616
15536298 74 18334852852940658177
17834074 16 18408602569667382387
18186145 218 17676481752890775725
193927 3 18129954381585813478
1986462 14 18186517713952786853
200 152 18060696195965720961
20279233 1 18262237827950726713
20281475 54 18412271613930415744
20369508 70 18335696127062193410
20374829 77 18260544485449169490
20403669 9 18339362967833385263
20645477 70 18411417327860756782
20671657 53 18412267207309820360
20681651 13 17487902426510353779
20693207 138 18260550013029693437
21065201 7 17749381581673473681
21501925 9 18273493455691261144
221490 88 18335145331523406402
2215653 11 18410286983142752639
22485316 2 18340767151988240969
22943178 12 18334569187657402313
23403322 49 18410012113704585887
23557571 272 17676477376071695028
23559900 14 18408316700717614320
29717793 49 18341321241709000157
3004659 81 18114465570181209558
3060560 45 14779547881359935834
312423 11 18271540731229715809
3286 77 18335700520666083220
32948 21 18113615643054917885
3421961 26 18413386523627585424
4214541 1 18335698321801297261
4463277 69 17917151589826410246
4921388 177 16153721946144903555
4990 188 18259982669482931553
5104073 3 18410293631689025161
5207 123 18199470965465240302
5281201 14 18187083970556552021
6025842 7 18340486780797279988
633830 44 17530679939921723633
77779 3 18335982051672618721
9709674 26 18189055455177114771

> <PUBCHEM_SHAPE_MULTIPOLES>
322.28
10.6
2.24
0.93
4.87
0.09
0.11
-4.25
0.97
-2.83
0.11
-0.22
-0.22
1.03

> <PUBCHEM_SHAPE_SELFOVERLAP>
659.118

> <PUBCHEM_SHAPE_VOLUME>
185.4

> <PUBCHEM_COORDINATE_TYPE>
2
5
10

$$$$
