153847
  -OEChem-07202400463D

 38 39  0     1  0  0  0  0  0999 V2000
   -4.8608   -1.5892    0.1736 Cl  0  0  0  0  0  0  0  0  0  0  0  0
   -3.8760    0.7006    1.7098 Cl  0  0  0  0  0  0  0  0  0  0  0  0
    5.7961   -1.7254    0.0261 Cl  0  0  0  0  0  0  0  0  0  0  0  0
   -0.9716    0.0143    1.6427 O   0  0  0  0  0  0  0  0  0  0  0  0
   -0.3453    0.8944   -0.4183 N   0  0  0  0  0  0  0  0  0  0  0  0
   -2.2914   -0.4910   -0.2881 C   0  0  1  0  0  0  0  0  0  0  0  0
   -3.2453    0.4094   -0.9953 C   0  0  1  0  0  0  0  0  0  0  0  0
   -3.6619   -0.2948    0.2625 C   0  0  0  0  0  0  0  0  0  0  0  0
   -1.9455   -1.7742   -0.9625 C   0  0  0  0  0  0  0  0  0  0  0  0
   -1.1365    0.1505    0.4331 C   0  0  0  0  0  0  0  0  0  0  0  0
   -3.0417    1.8817   -1.0183 C   0  0  0  0  0  0  0  0  0  0  0  0
   -1.4744   -2.8327    0.0241 C   0  0  0  0  0  0  0  0  0  0  0  0
    0.8217    1.6333    0.0331 C   0  0  1  0  0  0  0  0  0  0  0  0
    2.0575    0.7984    0.0317 C   0  0  0  0  0  0  0  0  0  0  0  0
    0.9504    2.9155   -0.8025 C   0  0  0  0  0  0  0  0  0  0  0  0
    2.2338   -0.1849   -0.9417 C   0  0  0  0  0  0  0  0  0  0  0  0
    3.0375    1.0012    1.0034 C   0  0  0  0  0  0  0  0  0  0  0  0
    3.3899   -0.9654   -0.9434 C   0  0  0  0  0  0  0  0  0  0  0  0
    4.1937    0.2208    1.0017 C   0  0  0  0  0  0  0  0  0  0  0  0
    4.3698   -0.7626    0.0283 C   0  0  0  0  0  0  0  0  0  0  0  0
   -3.6759    0.0699   -1.9317 H   0  0  0  0  0  0  0  0  0  0  0  0
   -1.1441   -1.5969   -1.6911 H   0  0  0  0  0  0  0  0  0  0  0  0
   -2.7800   -2.1779   -1.5479 H   0  0  0  0  0  0  0  0  0  0  0  0
   -4.0108    2.3780   -1.1425 H   0  0  0  0  0  0  0  0  0  0  0  0
   -2.5765    2.3089   -0.1258 H   0  0  0  0  0  0  0  0  0  0  0  0
   -2.4303    2.1619   -1.8828 H   0  0  0  0  0  0  0  0  0  0  0  0
   -0.5385   -2.5397    0.5107 H   0  0  0  0  0  0  0  0  0  0  0  0
   -2.2169   -3.0146    0.8070 H   0  0  0  0  0  0  0  0  0  0  0  0
   -1.2922   -3.7776   -0.4979 H   0  0  0  0  0  0  0  0  0  0  0  0
   -0.5375    0.8769   -1.4160 H   0  0  0  0  0  0  0  0  0  0  0  0
    0.6115    1.9359    1.0678 H   0  0  0  0  0  0  0  0  0  0  0  0
    1.1275    2.6853   -1.8595 H   0  0  0  0  0  0  0  0  0  0  0  0
    0.0341    3.5130   -0.7416 H   0  0  0  0  0  0  0  0  0  0  0  0
    1.7844    3.5319   -0.4500 H   0  0  0  0  0  0  0  0  0  0  0  0
    1.4957   -0.3569   -1.7201 H   0  0  0  0  0  0  0  0  0  0  0  0
    2.9139    1.7653    1.7662 H   0  0  0  0  0  0  0  0  0  0  0  0
    3.5153   -1.7260   -1.7098 H   0  0  0  0  0  0  0  0  0  0  0  0
    4.9490    0.3904    1.7647 H   0  0  0  0  0  0  0  0  0  0  0  0
  1  8  1  0  0  0  0
  2  8  1  0  0  0  0
  3 20  1  0  0  0  0
  4 10  2  0  0  0  0
  5 10  1  0  0  0  0
  5 13  1  0  0  0  0
  5 30  1  0  0  0  0
  6  7  1  0  0  0  0
  6  8  1  0  0  0  0
  6  9  1  0  0  0  0
  6 10  1  0  0  0  0
  7  8  1  0  0  0  0
  7 11  1  0  0  0  0
  7 21  1  0  0  0  0
  9 12  1  0  0  0  0
  9 22  1  0  0  0  0
  9 23  1  0  0  0  0
 11 24  1  0  0  0  0
 11 25  1  0  0  0  0
 11 26  1  0  0  0  0
 12 27  1  0  0  0  0
 12 28  1  0  0  0  0
 12 29  1  0  0  0  0
 13 14  1  0  0  0  0
 13 15  1  0  0  0  0
 13 31  1  0  0  0  0
 14 16  2  0  0  0  0
 14 17  1  0  0  0  0
 15 32  1  0  0  0  0
 15 33  1  0  0  0  0
 15 34  1  0  0  0  0
 16 18  1  0  0  0  0
 16 35  1  0  0  0  0
 17 19  2  0  0  0  0
 17 36  1  0  0  0  0
 18 20  2  0  0  0  0
 18 37  1  0  0  0  0
 19 20  1  0  0  0  0
 19 38  1  0  0  0  0
M  END
> <PUBCHEM_COMPOUND_CID>
153847

> <PUBCHEM_CONFORMER_RMSD>
0.8

> <PUBCHEM_CONFORMER_DIVERSEORDER>
17
36
27
32
26
19
4
42
20
21
43
22
13
40
2
30
7
41
1
45
35
39
33
38
14
29
9
44
16
6
3
10
37
24
23
8
31
18
11
28
5
12
34
25
15

> <PUBCHEM_MMFF94_PARTIAL_CHARGES>
24
1 -0.23
10 0.63
11 0.09
13 0.44
14 -0.14
16 -0.15
17 -0.15
18 -0.15
19 -0.15
2 -0.23
20 0.18
21 0.1
3 -0.18
30 0.37
35 0.15
36 0.15
37 0.15
38 0.15
4 -0.57
5 -0.73
6 -0.09
7 -0.19
8 0.45
9 0.09

> <PUBCHEM_EFFECTIVE_ROTOR_COUNT>
5.6

> <PUBCHEM_PHARMACOPHORE_FEATURES>
4
1 12 hydrophobe
1 4 acceptor
1 5 donor
6 14 16 17 18 19 20 rings

> <PUBCHEM_HEAVY_ATOM_COUNT>
20

> <PUBCHEM_ATOM_DEF_STEREO_COUNT>
0

> <PUBCHEM_ATOM_UDEF_STEREO_COUNT>
3

> <PUBCHEM_BOND_DEF_STEREO_COUNT>
0

> <PUBCHEM_BOND_UDEF_STEREO_COUNT>
0

> <PUBCHEM_ISOTOPIC_ATOM_COUNT>
0

> <PUBCHEM_COMPONENT_COUNT>
1

> <PUBCHEM_CACTVS_TAUTO_COUNT>
2

> <PUBCHEM_CONFORMER_ID>
000258F700000011

> <PUBCHEM_MMFF94_ENERGY>
45.1814

> <PUBCHEM_FEATURE_SELFOVERLAP>
20.297

> <PUBCHEM_SHAPE_FINGERPRINT>
10670039 82 10159699157786962554
10922523 26 18411133671199019413
12363563 72 18334019380409265332
12553582 1 18334003978756827322
12592029 89 18334296453160873851
12633257 1 18413113869901842614
12916754 54 18335703909780297349
13296908 3 18335416876604430228
13533116 47 18058446672257946891
13675066 3 17561374971716805905
14004511 7 18343868801191480497
14251751 93 18334849516120483519
14341114 328 15482668013669990538
15375358 24 18272360971625791150
15788980 27 18114180817985839134
17349148 13 17917712426212589094
17492 89 18194399128811907478
1813 80 18114181943288798764
18186145 218 18343304743009753339
19141452 34 18272086106282223007
200 152 16916775267431348188
20281475 54 18411985779946982612
20374829 77 18335415721685196634
20600515 1 18272662225006573180
21069387 34 17775278387326539645
21403212 168 18128826244581089833
23402539 116 18340762646314444084
23559900 14 18131059455533653296
23566358 27 17826524554085960437
26918003 58 17703789206318951394
296302 2 16630525167302621705
312423 11 18041852821365696053
465052 167 18042140906608337795
5104073 3 18131073757157603379
59755656 215 18261385612588262351
81228 2 18117565028909267740
9709674 26 18267017452099027222

> <PUBCHEM_SHAPE_MULTIPOLES>
406.35
10.41
2.48
1.27
6.62
0.01
0.29
-4.64
1.4
-0.35
-0.59
-0.53
0.27
0.26

> <PUBCHEM_SHAPE_SELFOVERLAP>
819.162

> <PUBCHEM_SHAPE_VOLUME>
239.6

> <PUBCHEM_COORDINATE_TYPE>
2
5
10

$$$$
