153920
  -OEChem-07202400463D

 36 36  0     0  0  0  0  0  0999 V2000
    1.3443   -1.8468    0.0286 O   0  0  0  0  0  0  0  0  0  0  0  0
    0.0942    2.3406   -0.0809 O   0  0  0  0  0  0  0  0  0  0  0  0
    2.1889    0.3069    0.0076 N   0  0  0  0  0  0  0  0  0  0  0  0
   -0.1225   -0.0427   -0.0412 N   0  0  0  0  0  0  0  0  0  0  0  0
   -1.9555    1.2041   -0.1120 N   0  0  0  0  0  0  0  0  0  0  0  0
   -1.2221   -0.8895   -0.0534 N   0  0  0  0  0  0  0  0  0  0  0  0
   -2.8192    2.2606   -0.1525 N   0  0  0  0  0  0  0  0  0  0  0  0
    3.5815   -0.0724    0.0474 C   0  0  0  0  0  0  0  0  0  0  0  0
   -3.6672   -0.5975   -0.1204 C   0  0  0  0  0  0  0  0  0  0  0  0
   -2.2591   -0.1046   -0.0953 C   0  0  0  0  0  0  0  0  0  0  0  0
    4.4346    1.2005    0.0467 C   0  0  0  0  0  0  0  0  0  0  0  0
    3.8328   -0.8732    1.3293 C   0  0  0  0  0  0  0  0  0  0  0  0
    3.9110   -0.9280   -1.1816 C   0  0  0  0  0  0  0  0  0  0  0  0
    1.1596   -0.6283    0.0012 C   0  0  0  0  0  0  0  0  0  0  0  0
   -0.5831    1.3235   -0.0792 C   0  0  0  0  0  0  0  0  0  0  0  0
   -3.7184   -1.9364   -0.8464 C   0  0  0  0  0  0  0  0  0  0  0  0
   -4.1999   -0.7169    1.3022 C   0  0  0  0  0  0  0  0  0  0  0  0
   -4.2950    0.1135   -0.6686 H   0  0  0  0  0  0  0  0  0  0  0  0
    1.9505    1.2932   -0.0177 H   0  0  0  0  0  0  0  0  0  0  0  0
    4.2520    1.7991   -0.8534 H   0  0  0  0  0  0  0  0  0  0  0  0
    4.2030    1.8337    0.9112 H   0  0  0  0  0  0  0  0  0  0  0  0
    5.5038    0.9637    0.0811 H   0  0  0  0  0  0  0  0  0  0  0  0
    3.3387   -1.8488    1.3379 H   0  0  0  0  0  0  0  0  0  0  0  0
    3.4902   -0.3230    2.2137 H   0  0  0  0  0  0  0  0  0  0  0  0
    4.9046   -1.0667    1.4575 H   0  0  0  0  0  0  0  0  0  0  0  0
    3.6257   -0.4145   -2.1073 H   0  0  0  0  0  0  0  0  0  0  0  0
    4.9877   -1.1288   -1.2336 H   0  0  0  0  0  0  0  0  0  0  0  0
    3.4118   -1.9012   -1.1795 H   0  0  0  0  0  0  0  0  0  0  0  0
   -3.1678   -2.7166   -0.3088 H   0  0  0  0  0  0  0  0  0  0  0  0
   -3.2903   -1.8566   -1.8520 H   0  0  0  0  0  0  0  0  0  0  0  0
   -4.7545   -2.2761   -0.9508 H   0  0  0  0  0  0  0  0  0  0  0  0
   -4.1740    0.2486    1.8182 H   0  0  0  0  0  0  0  0  0  0  0  0
   -3.6017   -1.4187    1.8943 H   0  0  0  0  0  0  0  0  0  0  0  0
   -5.2361   -1.0707    1.3013 H   0  0  0  0  0  0  0  0  0  0  0  0
   -3.3508    2.1965   -1.0193 H   0  0  0  0  0  0  0  0  0  0  0  0
   -3.4870    2.1528    0.6088 H   0  0  0  0  0  0  0  0  0  0  0  0
  1 14  2  0  0  0  0
  2 15  2  0  0  0  0
  3  8  1  0  0  0  0
  3 14  1  0  0  0  0
  3 19  1  0  0  0  0
  4  6  1  0  0  0  0
  4 14  1  0  0  0  0
  4 15  1  0  0  0  0
  5  7  1  0  0  0  0
  5 10  1  0  0  0  0
  5 15  1  0  0  0  0
  6 10  2  0  0  0  0
  7 35  1  0  0  0  0
  7 36  1  0  0  0  0
  8 11  1  0  0  0  0
  8 12  1  0  0  0  0
  8 13  1  0  0  0  0
  9 10  1  0  0  0  0
  9 16  1  0  0  0  0
  9 17  1  0  0  0  0
  9 18  1  0  0  0  0
 11 20  1  0  0  0  0
 11 21  1  0  0  0  0
 11 22  1  0  0  0  0
 12 23  1  0  0  0  0
 12 24  1  0  0  0  0
 12 25  1  0  0  0  0
 13 26  1  0  0  0  0
 13 27  1  0  0  0  0
 13 28  1  0  0  0  0
 16 29  1  0  0  0  0
 16 30  1  0  0  0  0
 16 31  1  0  0  0  0
 17 32  1  0  0  0  0
 17 33  1  0  0  0  0
 17 34  1  0  0  0  0
M  END
> <PUBCHEM_COMPOUND_CID>
153920

> <PUBCHEM_CONFORMER_RMSD>
0.6

> <PUBCHEM_CONFORMER_DIVERSEORDER>
1
4
9
11
2
10
3
12
7
8
5
6

> <PUBCHEM_MMFF94_PARTIAL_CHARGES>
15
1 -0.57
10 0.45
14 0.69
15 0.69
19 0.37
2 -0.57
3 -0.73
35 0.36
36 0.36
4 -0.06
5 -0.11
6 -0.51
7 -0.73
8 0.3
9 0.06

> <PUBCHEM_EFFECTIVE_ROTOR_COUNT>
4

> <PUBCHEM_PHARMACOPHORE_FEATURES>
7
1 1 acceptor
1 2 acceptor
1 3 donor
1 7 donor
3 9 16 17 hydrophobe
4 8 11 12 13 hydrophobe
5 4 5 6 10 15 rings

> <PUBCHEM_HEAVY_ATOM_COUNT>
17

> <PUBCHEM_ATOM_DEF_STEREO_COUNT>
0

> <PUBCHEM_ATOM_UDEF_STEREO_COUNT>
0

> <PUBCHEM_BOND_DEF_STEREO_COUNT>
0

> <PUBCHEM_BOND_UDEF_STEREO_COUNT>
0

> <PUBCHEM_ISOTOPIC_ATOM_COUNT>
0

> <PUBCHEM_COMPONENT_COUNT>
1

> <PUBCHEM_CACTVS_TAUTO_COUNT>
2

> <PUBCHEM_CONFORMER_ID>
0002594000000001

> <PUBCHEM_MMFF94_ENERGY>
43.9721

> <PUBCHEM_FEATURE_SELFOVERLAP>
35.521

> <PUBCHEM_SHAPE_FINGERPRINT>
10062212 137 18261105245069334201
11132069 177 18272646852917440799
11806522 49 18338794645028305367
12032990 46 18412268332680740766
12553582 1 18409729586439977107
13140716 1 18121224448255579539
13214271 11 18341604889327466597
13296908 3 18272651208151208342
13675066 3 11671781585080944294
14252887 29 18272663354255722990
14289901 80 18412823564651933762
14787075 74 18268147741821051544
15196674 1 18410292493501565828
15375462 189 18335701663116931907
16945 1 18410291449771544527
18186145 218 17023185977082179634
19050596 39 18115303367617809106
19141452 34 18060143158902716863
200 152 17968088733393504035
20281475 54 18202563986042206630
20510252 161 18343303647703721232
21029758 27 18187936109411412757
21267235 1 18408893927469375074
23402539 116 18409439302084298942
23557571 272 18201730508936025372
23559900 14 18126843799093418854
2748010 2 18196658393462739711
2871803 45 18409442587813408175
312423 11 18187091607445974562
34934 24 18337104580198659675
474 4 17241618402221578260
5104073 3 18336825299723703192
5374978 207 18334852827350066170
537710 114 18335708294625701012
57096353 35 18114184142153623414
7097593 13 17392463412596293122
9709674 26 18409452457917584898

> <PUBCHEM_SHAPE_MULTIPOLES>
313.21
9.07
2.01
0.95
2.28
0.8
0.16
-2.14
0.68
-0.92
-0.26
0.15
-0.35
-0.11

> <PUBCHEM_SHAPE_SELFOVERLAP>
632.65

> <PUBCHEM_SHAPE_VOLUME>
185.7

> <PUBCHEM_COORDINATE_TYPE>
2
5
10

$$$$
