155948
  -OEChem-07202400313D

 38 40  0     1  0  0  0  0  0999 V2000
   -2.5514    1.2534    0.1567 O   0  0  0  0  0  0  0  0  0  0  0  0
   -1.2908    1.3285   -1.8120 O   0  0  0  0  0  0  0  0  0  0  0  0
   -4.3369    0.0276    0.9243 O   0  0  0  0  0  0  0  0  0  0  0  0
    1.2696    0.9798    0.0070 C   0  0  1  0  0  0  0  0  0  0  0  0
    1.2262   -0.5882    0.1194 C   0  0  1  0  0  0  0  0  0  0  0  0
   -0.1378    1.5744    0.3409 C   0  0  0  0  0  0  0  0  0  0  0  0
    2.3005    1.5633    1.0272 C   0  0  0  0  0  0  0  0  0  0  0  0
   -1.2914    0.9396   -0.4456 C   0  0  1  0  0  0  0  0  0  0  0  0
    0.0672   -1.2125   -0.6996 C   0  0  0  0  0  0  0  0  0  0  0  0
   -1.2177   -0.5375   -0.3463 C   0  0  0  0  0  0  0  0  0  0  0  0
    2.6080   -1.1824   -0.1393 C   0  0  0  0  0  0  0  0  0  0  0  0
    3.3127    0.5451    1.5639 C   0  0  0  0  0  0  0  0  0  0  0  0
    1.7013    1.4323   -1.4121 C   0  0  0  0  0  0  0  0  0  0  0  0
    3.7675   -0.4578    0.5089 C   0  0  0  0  0  0  0  0  0  0  0  0
   -2.3392   -1.0501    0.1606 C   0  0  0  0  0  0  0  0  0  0  0  0
   -3.2123    0.0969    0.4583 C   0  0  0  0  0  0  0  0  0  0  0  0
    2.8553   -2.2693   -0.8884 C   0  0  0  0  0  0  0  0  0  0  0  0
   -2.7306   -2.4430    0.4760 C   0  0  0  0  0  0  0  0  0  0  0  0
    0.9967   -0.8245    1.1715 H   0  0  0  0  0  0  0  0  0  0  0  0
   -0.1320    2.6584    0.1653 H   0  0  0  0  0  0  0  0  0  0  0  0
   -0.3376    1.4479    1.4148 H   0  0  0  0  0  0  0  0  0  0  0  0
    1.7882    2.0002    1.8938 H   0  0  0  0  0  0  0  0  0  0  0  0
    2.8480    2.3976    0.5694 H   0  0  0  0  0  0  0  0  0  0  0  0
    0.0033   -2.2851   -0.4859 H   0  0  0  0  0  0  0  0  0  0  0  0
    0.2455   -1.1159   -1.7767 H   0  0  0  0  0  0  0  0  0  0  0  0
    2.8641    0.0044    2.4076 H   0  0  0  0  0  0  0  0  0  0  0  0
    4.1811    1.0760    1.9713 H   0  0  0  0  0  0  0  0  0  0  0  0
    2.7547    1.2099   -1.6105 H   0  0  0  0  0  0  0  0  0  0  0  0
    1.1240    0.9481   -2.2033 H   0  0  0  0  0  0  0  0  0  0  0  0
    1.5783    2.5153   -1.5291 H   0  0  0  0  0  0  0  0  0  0  0  0
    4.4461   -1.1799    0.9796 H   0  0  0  0  0  0  0  0  0  0  0  0
    4.3398    0.0708   -0.2632 H   0  0  0  0  0  0  0  0  0  0  0  0
   -1.6456    0.6031   -2.3530 H   0  0  0  0  0  0  0  0  0  0  0  0
    2.0711   -2.8306   -1.3814 H   0  0  0  0  0  0  0  0  0  0  0  0
    3.8704   -2.6281   -1.0289 H   0  0  0  0  0  0  0  0  0  0  0  0
   -2.9349   -2.5494    1.5461 H   0  0  0  0  0  0  0  0  0  0  0  0
   -1.9513   -3.1629    0.2118 H   0  0  0  0  0  0  0  0  0  0  0  0
   -3.6357   -2.7171   -0.0755 H   0  0  0  0  0  0  0  0  0  0  0  0
  1  8  1  0  0  0  0
  1 16  1  0  0  0  0
  2  8  1  0  0  0  0
  2 33  1  0  0  0  0
  3 16  2  0  0  0  0
  4  5  1  0  0  0  0
  4  6  1  0  0  0  0
  4  7  1  0  0  0  0
  4 13  1  0  0  0  0
  5  9  1  0  0  0  0
  5 11  1  0  0  0  0
  5 19  1  0  0  0  0
  6  8  1  0  0  0  0
  6 20  1  0  0  0  0
  6 21  1  0  0  0  0
  7 12  1  0  0  0  0
  7 22  1  0  0  0  0
  7 23  1  0  0  0  0
  8 10  1  0  0  0  0
  9 10  1  0  0  0  0
  9 24  1  0  0  0  0
  9 25  1  0  0  0  0
 10 15  2  0  0  0  0
 11 14  1  0  0  0  0
 11 17  2  0  0  0  0
 12 14  1  0  0  0  0
 12 26  1  0  0  0  0
 12 27  1  0  0  0  0
 13 28  1  0  0  0  0
 13 29  1  0  0  0  0
 13 30  1  0  0  0  0
 14 31  1  0  0  0  0
 14 32  1  0  0  0  0
 15 16  1  0  0  0  0
 15 18  1  0  0  0  0
 17 34  1  0  0  0  0
 17 35  1  0  0  0  0
 18 36  1  0  0  0  0
 18 37  1  0  0  0  0
 18 38  1  0  0  0  0
M  END
> <PUBCHEM_COMPOUND_CID>
155948

> <PUBCHEM_CONFORMER_RMSD>
0.6

> <PUBCHEM_CONFORMER_DIVERSEORDER>
1

> <PUBCHEM_MMFF94_PARTIAL_CHARGES>
16
1 -0.43
10 -0.28
11 -0.28
14 0.14
15 -0.12
16 0.71
17 -0.3
18 0.14
2 -0.68
3 -0.57
33 0.4
34 0.15
35 0.15
5 0.14
8 0.7
9 0.14

> <PUBCHEM_EFFECTIVE_ROTOR_COUNT>
1.2

> <PUBCHEM_PHARMACOPHORE_FEATURES>
6
1 2 acceptor
1 2 donor
1 3 acceptor
5 1 8 10 15 16 rings
6 4 5 6 8 9 10 rings
6 4 5 7 11 12 14 rings

> <PUBCHEM_HEAVY_ATOM_COUNT>
18

> <PUBCHEM_ATOM_DEF_STEREO_COUNT>
3

> <PUBCHEM_ATOM_UDEF_STEREO_COUNT>
0

> <PUBCHEM_BOND_DEF_STEREO_COUNT>
0

> <PUBCHEM_BOND_UDEF_STEREO_COUNT>
0

> <PUBCHEM_ISOTOPIC_ATOM_COUNT>
0

> <PUBCHEM_COMPONENT_COUNT>
1

> <PUBCHEM_CACTVS_TAUTO_COUNT>
1

> <PUBCHEM_CONFORMER_ID>
0002612C00000001

> <PUBCHEM_MMFF94_ENERGY>
41.4159

> <PUBCHEM_FEATURE_SELFOVERLAP>
30.578

> <PUBCHEM_SHAPE_FINGERPRINT>
10366900 7 18130498721197735672
10922523 26 18409727335491576468
11132069 177 18409164424462094083
11471102 22 18272652350623156034
11640471 11 15339111360062641322
12251169 10 18410295821911082443
12382932 28 18342452677106000729
12633257 1 18411414012051072379
12696612 119 18336262435511202524
13140716 1 18411140263863217955
13296908 3 18336260129171793242
13675066 3 18411140221282446337
14178342 30 18270112560182944235
14223421 5 18341046410418974640
15219456 202 18342451509043720504
15309172 13 17989200438925833966
15653759 3 18334854996139868858
15775835 57 16487245586694449792
16945 1 18186795842490636525
17804303 29 18269845207195722766
17844478 74 18334010562445826284
1813 80 17458631141876571935
19049666 15 18124588691753592568
200 152 17845352488511015855
20361792 2 16660358203487869799
20511035 2 18343864394291141662
20559304 39 18266182909914705228
20715346 28 18337942399057809324
21041028 32 17559116467469676048
21501502 16 18263651825715970263
21501925 9 18336823216411388683
21731516 1 17095513015629444160
21756936 100 17127031784220725336
22721475 48 18335422382662689906
2334 1 18265900339890444543
23388829 49 17764583618307058407
23419403 2 14429334465221276175
23463225 33 18335985354048671757
23559900 14 18337675209327279326
2748010 2 18339913814853257582
598444 67 18121782729373678743
7364860 26 18272093816149270460
8809292 202 18408889503521386490
9709674 26 18342174475053060127

> <PUBCHEM_SHAPE_MULTIPOLES>
352.82
6.25
2.2
1.24
1.65
0.79
-0.2
1.31
2.17
-0.27
-0.24
-0.45
-0.37
0.77

> <PUBCHEM_SHAPE_SELFOVERLAP>
758.358

> <PUBCHEM_SHAPE_VOLUME>
193.7

> <PUBCHEM_COORDINATE_TYPE>
2
5
10

$$$$
