15604010
  -OEChem-07202400563D

 45 46  0     0  0  0  0  0  0999 V2000
   -3.3344    1.0041    0.0358 N   0  0  0  0  0  0  0  0  0  0  0  0
   -3.1722   -1.2440   -0.7755 N   0  0  0  0  0  0  0  0  0  0  0  0
   -1.6801    2.1135    1.2788 N   0  0  0  0  0  0  0  0  0  0  0  0
   -4.2308    2.0271    0.0052 N   0  0  0  0  0  0  0  0  0  0  0  0
   -5.0639    0.2277   -1.1106 N   0  0  0  0  0  0  0  0  0  0  0  0
    2.5459   -0.1629    0.7866 C   0  0  0  0  0  0  0  0  0  0  0  0
    1.1557   -0.0011    0.1615 C   0  0  0  0  0  0  0  0  0  0  0  0
    3.6462    0.2020   -0.2133 C   0  0  0  0  0  0  0  0  0  0  0  0
    0.0218   -0.3827    1.1163 C   0  0  0  0  0  0  0  0  0  0  0  0
    5.0607    0.0472    0.3531 C   0  0  0  0  0  0  0  0  0  0  0  0
   -1.3382   -0.1651    0.5427 C   0  0  0  0  0  0  0  0  0  0  0  0
    6.1612    0.3870   -0.6543 C   0  0  0  0  0  0  0  0  0  0  0  0
   -1.9965   -1.2910   -0.2228 C   0  0  0  0  0  0  0  0  0  0  0  0
    7.5469    0.2854   -0.0150 C   0  0  0  0  0  0  0  0  0  0  0  0
   -2.0670    0.9684    0.6375 C   0  0  0  0  0  0  0  0  0  0  0  0
   -1.2339   -2.5905   -0.3684 C   0  0  0  0  0  0  0  0  0  0  0  0
   -3.8679   -0.0841   -0.6538 C   0  0  0  0  0  0  0  0  0  0  0  0
    8.6435    0.6584   -0.9997 C   0  0  0  0  0  0  0  0  0  0  0  0
   -1.5600   -3.5044    0.7850 C   0  0  0  0  0  0  0  0  0  0  0  0
   -5.2369    1.5051   -0.6891 C   0  0  0  0  0  0  0  0  0  0  0  0
    2.6806   -1.1997    1.1173 H   0  0  0  0  0  0  0  0  0  0  0  0
    2.6279    0.4752    1.6744 H   0  0  0  0  0  0  0  0  0  0  0  0
    1.0299    1.0439   -0.1510 H   0  0  0  0  0  0  0  0  0  0  0  0
    1.0984   -0.6038   -0.7525 H   0  0  0  0  0  0  0  0  0  0  0  0
    3.5487   -0.4309   -1.1040 H   0  0  0  0  0  0  0  0  0  0  0  0
    3.5051    1.2383   -0.5447 H   0  0  0  0  0  0  0  0  0  0  0  0
    0.1271    0.2195    2.0286 H   0  0  0  0  0  0  0  0  0  0  0  0
    0.1615   -1.4059    1.4749 H   0  0  0  0  0  0  0  0  0  0  0  0
    5.1616    0.6944    1.2333 H   0  0  0  0  0  0  0  0  0  0  0  0
    5.1976   -0.9840    0.7018 H   0  0  0  0  0  0  0  0  0  0  0  0
    6.0060    1.4041   -1.0342 H   0  0  0  0  0  0  0  0  0  0  0  0
    6.0965   -0.2924   -1.5126 H   0  0  0  0  0  0  0  0  0  0  0  0
    7.7165   -0.7361    0.3448 H   0  0  0  0  0  0  0  0  0  0  0  0
    7.6062    0.9500    0.8548 H   0  0  0  0  0  0  0  0  0  0  0  0
   -0.1580   -2.4341   -0.4541 H   0  0  0  0  0  0  0  0  0  0  0  0
   -1.5409   -3.0679   -1.3075 H   0  0  0  0  0  0  0  0  0  0  0  0
    9.6251    0.5773   -0.5225 H   0  0  0  0  0  0  0  0  0  0  0  0
    8.6323   -0.0065   -1.8693 H   0  0  0  0  0  0  0  0  0  0  0  0
    8.5210    1.6875   -1.3522 H   0  0  0  0  0  0  0  0  0  0  0  0
   -1.0053   -4.4438    0.6949 H   0  0  0  0  0  0  0  0  0  0  0  0
   -2.6283   -3.7475    0.8018 H   0  0  0  0  0  0  0  0  0  0  0  0
   -1.3159   -3.0584    1.7535 H   0  0  0  0  0  0  0  0  0  0  0  0
   -2.2966    2.9167    1.2923 H   0  0  0  0  0  0  0  0  0  0  0  0
   -0.7706    2.1733    1.7179 H   0  0  0  0  0  0  0  0  0  0  0  0
   -6.1276    2.0799   -0.8939 H   0  0  0  0  0  0  0  0  0  0  0  0
  1  4  1  0  0  0  0
  1 15  1  0  0  0  0
  1 17  1  0  0  0  0
  2 13  2  0  0  0  0
  2 17  1  0  0  0  0
  3 15  1  0  0  0  0
  3 43  1  0  0  0  0
  3 44  1  0  0  0  0
  4 20  2  0  0  0  0
  5 17  2  0  0  0  0
  5 20  1  0  0  0  0
  6  7  1  0  0  0  0
  6  8  1  0  0  0  0
  6 21  1  0  0  0  0
  6 22  1  0  0  0  0
  7  9  1  0  0  0  0
  7 23  1  0  0  0  0
  7 24  1  0  0  0  0
  8 10  1  0  0  0  0
  8 25  1  0  0  0  0
  8 26  1  0  0  0  0
  9 11  1  0  0  0  0
  9 27  1  0  0  0  0
  9 28  1  0  0  0  0
 10 12  1  0  0  0  0
 10 29  1  0  0  0  0
 10 30  1  0  0  0  0
 11 13  1  0  0  0  0
 11 15  2  0  0  0  0
 12 14  1  0  0  0  0
 12 31  1  0  0  0  0
 12 32  1  0  0  0  0
 13 16  1  0  0  0  0
 14 18  1  0  0  0  0
 14 33  1  0  0  0  0
 14 34  1  0  0  0  0
 16 19  1  0  0  0  0
 16 35  1  0  0  0  0
 16 36  1  0  0  0  0
 18 37  1  0  0  0  0
 18 38  1  0  0  0  0
 18 39  1  0  0  0  0
 19 40  1  0  0  0  0
 19 41  1  0  0  0  0
 19 42  1  0  0  0  0
 20 45  1  0  0  0  0
M  END
> <PUBCHEM_COMPOUND_CID>
15604010

> <PUBCHEM_CONFORMER_RMSD>
0.8

> <PUBCHEM_CONFORMER_DIVERSEORDER>
1
125
127
65
120
75
102
31
103
12
88
91
87
46
80
82
99
78
117
110
118
69
64
17
29
56
13
50
126
68
25
67
9
96
59
83
10
6
86
95
119
98
28
94
106
97
21
7
108
74
131
44
5
36
22
16
101
62
105
41
79
123
54
66
116
15
112
104
109
53
40
20
39
89
37
42
49
72
90
58
45
122
2
3
26
100
111
57
33
14
8
129
34
30
76
77
132
52
55
4
35
107
130
115
61
11
84
38
63
43
23
47
48
71
114
24
81
121
85
60
124
32
113
18
27
51
19
92
70
93
73
128

> <PUBCHEM_MMFF94_PARTIAL_CHARGES>
15
1 0.6
11 -0.12
13 0.37
15 0.07
16 0.06
17 0.31
2 -0.58
20 0.37
3 -0.9
4 -0.71
43 0.4
44 0.4
45 0.15
5 -0.57
9 0.14

> <PUBCHEM_EFFECTIVE_ROTOR_COUNT>
8

> <PUBCHEM_PHARMACOPHORE_FEATURES>
8
1 18 hydrophobe
1 19 hydrophobe
1 2 acceptor
1 3 cation
1 3 donor
4 1 2 5 17 cation
5 1 4 5 17 20 rings
6 1 2 11 13 15 17 rings

> <PUBCHEM_HEAVY_ATOM_COUNT>
20

> <PUBCHEM_ATOM_DEF_STEREO_COUNT>
0

> <PUBCHEM_ATOM_UDEF_STEREO_COUNT>
0

> <PUBCHEM_BOND_DEF_STEREO_COUNT>
0

> <PUBCHEM_BOND_UDEF_STEREO_COUNT>
0

> <PUBCHEM_ISOTOPIC_ATOM_COUNT>
0

> <PUBCHEM_COMPONENT_COUNT>
1

> <PUBCHEM_CACTVS_TAUTO_COUNT>
11

> <PUBCHEM_CONFORMER_ID>
00EE192A00000001

> <PUBCHEM_MMFF94_ENERGY>
26.6248

> <PUBCHEM_FEATURE_SELFOVERLAP>
40.737

> <PUBCHEM_SHAPE_FINGERPRINT>
10 15 11674884399095793364
10411042 1 17905047311399294643
107951 10 18408885139687407807
11315181 36 17489310815222038040
12236239 1 18113329786958253762
12293681 160 18130781214519688801
12788726 201 18059855008934723640
13257819 101 17096913691097356455
13288520 33 13830128395294850881
13668630 136 15052015667696085188
14849402 71 9367043568981968286
15183329 4 18342459214990457586
15716309 27 11312057652125605340
167882 2 18194401095843755554
17093844 174 18337109064445301330
17870717 6 17703794725357169110
19489759 90 18060139834476463376
200 152 14333406752853836779
20645476 183 18261103089444482347
21267235 1 18272650194929257931
23198884 109 18411136931274141948
23402539 116 18272362070784211917
23559900 14 18059565932345998744
300161 21 18408038512282155914
3759504 43 18259700104007008259
4073 2 18260552269053809050
559249 180 18410290320395969514
59755656 215 18272090470828825990
59755656 520 18187357731661488774

> <PUBCHEM_SHAPE_MULTIPOLES>
386.69
17.79
2.36
1.05
45.81
2.09
-0.06
-8.15
6.95
-3.93
-0.37
-0.17
-0.08
-0.31

> <PUBCHEM_SHAPE_SELFOVERLAP>
782.027

> <PUBCHEM_SHAPE_VOLUME>
222.5

> <PUBCHEM_COORDINATE_TYPE>
2
5
10

$$$$
