15724678
  -OEChem-07202400403D

 36 36  0     0  0  0  0  0  0999 V2000
   -3.7356    1.0156    0.2113 Br  0  0  0  0  0  0  0  0  0  0  0  0
   -1.5647    0.0701    2.3922 Br  0  0  0  0  0  0  0  0  0  0  0  0
   -2.5405   -1.0727   -2.2206 Br  0  0  0  0  0  0  0  0  0  0  0  0
   -2.9553   -2.4460    0.6143 Br  0  0  0  0  0  0  0  0  0  0  0  0
   -1.2088    3.1989    0.9945 Br  0  0  0  0  0  0  0  0  0  0  0  0
   -1.0380    2.0186   -1.9740 Br  0  0  0  0  0  0  0  0  0  0  0  0
   -1.8037    0.3309    0.3502 C   0  0  0  0  0  0  0  0  0  0  0  0
   -1.7435   -1.1175   -0.3275 C   0  0  0  0  0  0  0  0  0  0  0  0
   -0.8072    1.5199   -0.0655 C   0  0  0  0  0  0  0  0  0  0  0  0
   -0.3933   -1.8527   -0.5616 C   0  0  0  0  0  0  0  0  0  0  0  0
    0.6979    1.2263    0.1699 C   0  0  0  0  0  0  0  0  0  0  0  0
    0.4768   -2.1950    0.6572 C   0  0  0  0  0  0  0  0  0  0  0  0
    1.7635    2.2600   -0.2394 C   0  0  0  0  0  0  0  0  0  0  0  0
    1.8430   -2.8020    0.2802 C   0  0  0  0  0  0  0  0  0  0  0  0
    3.1938    1.8606    0.1819 C   0  0  0  0  0  0  0  0  0  0  0  0
    2.7996   -1.8539   -0.4595 C   0  0  0  0  0  0  0  0  0  0  0  0
    3.7026    0.5380   -0.4156 C   0  0  0  0  0  0  0  0  0  0  0  0
    3.3135   -0.6991    0.4119 C   0  0  0  0  0  0  0  0  0  0  0  0
    0.1848   -1.2822   -1.2934 H   0  0  0  0  0  0  0  0  0  0  0  0
   -0.5891   -2.8086   -1.0713 H   0  0  0  0  0  0  0  0  0  0  0  0
    0.9471    0.3303   -0.3867 H   0  0  0  0  0  0  0  0  0  0  0  0
    0.8584    1.0153    1.2318 H   0  0  0  0  0  0  0  0  0  0  0  0
   -0.0490   -2.9277    1.2801 H   0  0  0  0  0  0  0  0  0  0  0  0
    0.6408   -1.3225    1.2852 H   0  0  0  0  0  0  0  0  0  0  0  0
    1.5505    3.2351    0.2094 H   0  0  0  0  0  0  0  0  0  0  0  0
    1.7584    2.4028   -1.3254 H   0  0  0  0  0  0  0  0  0  0  0  0
    1.6741   -3.6869   -0.3456 H   0  0  0  0  0  0  0  0  0  0  0  0
    2.3334   -3.1565    1.1952 H   0  0  0  0  0  0  0  0  0  0  0  0
    3.2703    1.8393    1.2756 H   0  0  0  0  0  0  0  0  0  0  0  0
    3.8631    2.6618   -0.1570 H   0  0  0  0  0  0  0  0  0  0  0  0
    2.3120   -1.4779   -1.3637 H   0  0  0  0  0  0  0  0  0  0  0  0
    3.6651   -2.4320   -0.8074 H   0  0  0  0  0  0  0  0  0  0  0  0
    4.7988    0.5796   -0.4532 H   0  0  0  0  0  0  0  0  0  0  0  0
    3.3664    0.4580   -1.4556 H   0  0  0  0  0  0  0  0  0  0  0  0
    2.5886   -0.4338    1.1832 H   0  0  0  0  0  0  0  0  0  0  0  0
    4.1955   -1.0476    0.9651 H   0  0  0  0  0  0  0  0  0  0  0  0
  1  7  1  0  0  0  0
  2  7  1  0  0  0  0
  3  8  1  0  0  0  0
  4  8  1  0  0  0  0
  5  9  1  0  0  0  0
  6  9  1  0  0  0  0
  7  8  1  0  0  0  0
  7  9  1  0  0  0  0
  8 10  1  0  0  0  0
  9 11  1  0  0  0  0
 10 12  1  0  0  0  0
 10 19  1  0  0  0  0
 10 20  1  0  0  0  0
 11 13  1  0  0  0  0
 11 21  1  0  0  0  0
 11 22  1  0  0  0  0
 12 14  1  0  0  0  0
 12 23  1  0  0  0  0
 12 24  1  0  0  0  0
 13 15  1  0  0  0  0
 13 25  1  0  0  0  0
 13 26  1  0  0  0  0
 14 16  1  0  0  0  0
 14 27  1  0  0  0  0
 14 28  1  0  0  0  0
 15 17  1  0  0  0  0
 15 29  1  0  0  0  0
 15 30  1  0  0  0  0
 16 18  1  0  0  0  0
 16 31  1  0  0  0  0
 16 32  1  0  0  0  0
 17 18  1  0  0  0  0
 17 33  1  0  0  0  0
 17 34  1  0  0  0  0
 18 35  1  0  0  0  0
 18 36  1  0  0  0  0
M  END
> <PUBCHEM_COMPOUND_CID>
15724678

> <PUBCHEM_CONFORMER_RMSD>
0.6

> <PUBCHEM_CONFORMER_DIVERSEORDER>
1
2
3
4
5

> <PUBCHEM_MMFF94_PARTIAL_CHARGES>
9
1 -0.23
2 -0.23
3 -0.23
4 -0.23
5 -0.23
6 -0.23
7 0.46
8 0.46
9 0.46

> <PUBCHEM_EFFECTIVE_ROTOR_COUNT>
2.4

> <PUBCHEM_PHARMACOPHORE_FEATURES>
9
1 1 hydrophobe
1 2 hydrophobe
1 3 hydrophobe
1 4 hydrophobe
1 5 hydrophobe
1 6 hydrophobe
3 1 2 7 hydrophobe
3 3 4 8 hydrophobe
3 5 6 9 hydrophobe

> <PUBCHEM_HEAVY_ATOM_COUNT>
18

> <PUBCHEM_ATOM_DEF_STEREO_COUNT>
0

> <PUBCHEM_ATOM_UDEF_STEREO_COUNT>
0

> <PUBCHEM_BOND_DEF_STEREO_COUNT>
0

> <PUBCHEM_BOND_UDEF_STEREO_COUNT>
0

> <PUBCHEM_ISOTOPIC_ATOM_COUNT>
0

> <PUBCHEM_COMPONENT_COUNT>
1

> <PUBCHEM_CACTVS_TAUTO_COUNT>
1

> <PUBCHEM_CONFORMER_ID>
00EFF08600000001

> <PUBCHEM_MMFF94_ENERGY>
70.9623

> <PUBCHEM_FEATURE_SELFOVERLAP>
49.664

> <PUBCHEM_SHAPE_FINGERPRINT>
10967382 1 18410576141404511800
11578080 2 17416380234526671209
12539773 59 17775289369409968517
12553582 1 18053947530738421444
12592029 89 18410019840324118289
12596599 1 17845671290937881934
12788726 201 17917153780028135841
13027679 85 18268431415778624785
13140716 1 18410572915757348850
14142880 1 17407104466418378761
14178342 30 18340198601645977152
14251711 518 18194959639323826158
14251745 187 18337658802319658104
14251757 17 17896296109194890583
15852999 172 16182659172210732125
16945 1 18124620620656515747
192875 21 18266152033890952842
19930381 70 18050567640499826057
23227448 37 18410855421937965815
2334 1 18266741478959221642
23419403 2 17896882037350075805
23559900 14 18342735260744228920
238 59 17402850872315871575
2748010 2 18118956142592308222
539174 4 18055105153199470362
6443956 14 18265622172301932131
7832392 63 18125159329846576002

> <PUBCHEM_SHAPE_MULTIPOLES>
406.09
5.74
3.85
1.79
3.24
0.18
-0.24
-0.66
-0.18
0.1
0.28
-1.61
0.22
-0.28

> <PUBCHEM_SHAPE_SELFOVERLAP>
692.003

> <PUBCHEM_SHAPE_VOLUME>
274.9

> <PUBCHEM_COORDINATE_TYPE>
2
5
10

$$$$
