16181
  -OEChem-07202400103D

 37 36  0     0  0  0  0  0  0999 V2000
   -1.9717   -0.0256   -0.7325 S   0  0  0  0  0  0  0  0  0  0  0  0
   -1.1067    0.4551    1.6839 O   0  0  0  0  0  0  0  0  0  0  0  0
    0.5915   -0.0097    0.1292 N   0  0  0  0  0  0  0  0  0  0  0  0
    1.6870    0.6681    0.7678 C   0  0  0  0  0  0  0  0  0  0  0  0
    0.9498   -0.9127   -0.9732 C   0  0  0  0  0  0  0  0  0  0  0  0
    2.0043    2.0146    0.1076 C   0  0  0  0  0  0  0  0  0  0  0  0
    1.2191   -2.3427   -0.4915 C   0  0  0  0  0  0  0  0  0  0  0  0
    0.7924    2.9424    0.2007 C   0  0  0  0  0  0  0  0  0  0  0  0
    2.4186    1.8422   -1.3555 C   0  0  0  0  0  0  0  0  0  0  0  0
   -0.0355   -2.9193    0.1658 C   0  0  0  0  0  0  0  0  0  0  0  0
    2.3934   -2.3967    0.4883 C   0  0  0  0  0  0  0  0  0  0  0  0
   -0.7541    0.1820    0.5385 C   0  0  0  0  0  0  0  0  0  0  0  0
   -3.4897    0.2978    0.1913 C   0  0  0  0  0  0  0  0  0  0  0  0
   -4.6984    0.2046   -0.7205 C   0  0  0  0  0  0  0  0  0  0  0  0
    2.5940    0.0638    0.7672 H   0  0  0  0  0  0  0  0  0  0  0  0
    1.4236    0.8420    1.8182 H   0  0  0  0  0  0  0  0  0  0  0  0
    1.8561   -0.5638   -1.4697 H   0  0  0  0  0  0  0  0  0  0  0  0
    0.1844   -0.9355   -1.7510 H   0  0  0  0  0  0  0  0  0  0  0  0
    2.8371    2.4732    0.6550 H   0  0  0  0  0  0  0  0  0  0  0  0
    1.4701   -2.9561   -1.3657 H   0  0  0  0  0  0  0  0  0  0  0  0
    1.0752    3.9548   -0.1097 H   0  0  0  0  0  0  0  0  0  0  0  0
    0.4201    3.0099    1.2282 H   0  0  0  0  0  0  0  0  0  0  0  0
   -0.0283    2.6305   -0.4515 H   0  0  0  0  0  0  0  0  0  0  0  0
    1.5867    1.5410   -1.9992 H   0  0  0  0  0  0  0  0  0  0  0  0
    3.2448    1.1314   -1.4550 H   0  0  0  0  0  0  0  0  0  0  0  0
    2.7786    2.8011   -1.7474 H   0  0  0  0  0  0  0  0  0  0  0  0
    0.1286   -3.9751    0.4116 H   0  0  0  0  0  0  0  0  0  0  0  0
   -0.8929   -2.8823   -0.5126 H   0  0  0  0  0  0  0  0  0  0  0  0
   -0.2946   -2.4165    1.1020 H   0  0  0  0  0  0  0  0  0  0  0  0
    2.1532   -1.9546    1.4599 H   0  0  0  0  0  0  0  0  0  0  0  0
    3.2849   -1.9182    0.0709 H   0  0  0  0  0  0  0  0  0  0  0  0
    2.6580   -3.4428    0.6836 H   0  0  0  0  0  0  0  0  0  0  0  0
   -3.5848   -0.4314    1.0022 H   0  0  0  0  0  0  0  0  0  0  0  0
   -3.4421    1.2986    0.6325 H   0  0  0  0  0  0  0  0  0  0  0  0
   -4.6492    0.9402   -1.5307 H   0  0  0  0  0  0  0  0  0  0  0  0
   -4.7939   -0.7935   -1.1615 H   0  0  0  0  0  0  0  0  0  0  0  0
   -5.6119    0.4024   -0.1498 H   0  0  0  0  0  0  0  0  0  0  0  0
  1 12  1  0  0  0  0
  1 13  1  0  0  0  0
  2 12  2  0  0  0  0
  3  4  1  0  0  0  0
  3  5  1  0  0  0  0
  3 12  1  0  0  0  0
  4  6  1  0  0  0  0
  4 15  1  0  0  0  0
  4 16  1  0  0  0  0
  5  7  1  0  0  0  0
  5 17  1  0  0  0  0
  5 18  1  0  0  0  0
  6  8  1  0  0  0  0
  6  9  1  0  0  0  0
  6 19  1  0  0  0  0
  7 10  1  0  0  0  0
  7 11  1  0  0  0  0
  7 20  1  0  0  0  0
  8 21  1  0  0  0  0
  8 22  1  0  0  0  0
  8 23  1  0  0  0  0
  9 24  1  0  0  0  0
  9 25  1  0  0  0  0
  9 26  1  0  0  0  0
 10 27  1  0  0  0  0
 10 28  1  0  0  0  0
 10 29  1  0  0  0  0
 11 30  1  0  0  0  0
 11 31  1  0  0  0  0
 11 32  1  0  0  0  0
 13 14  1  0  0  0  0
 13 33  1  0  0  0  0
 13 34  1  0  0  0  0
 14 35  1  0  0  0  0
 14 36  1  0  0  0  0
 14 37  1  0  0  0  0
M  END
> <PUBCHEM_COMPOUND_CID>
16181

> <PUBCHEM_CONFORMER_RMSD>
0.8

> <PUBCHEM_CONFORMER_DIVERSEORDER>
1
8
12
11
6
4
15
16
2
7
9
3
5
10
13
14

> <PUBCHEM_MMFF94_PARTIAL_CHARGES>
7
1 -0.37
12 0.77
13 0.23
2 -0.57
3 -0.66
4 0.3
5 0.3

> <PUBCHEM_EFFECTIVE_ROTOR_COUNT>
7

> <PUBCHEM_PHARMACOPHORE_FEATURES>
3
1 14 hydrophobe
3 6 8 9 hydrophobe
3 7 10 11 hydrophobe

> <PUBCHEM_HEAVY_ATOM_COUNT>
14

> <PUBCHEM_ATOM_DEF_STEREO_COUNT>
0

> <PUBCHEM_ATOM_UDEF_STEREO_COUNT>
0

> <PUBCHEM_BOND_DEF_STEREO_COUNT>
0

> <PUBCHEM_BOND_UDEF_STEREO_COUNT>
0

> <PUBCHEM_ISOTOPIC_ATOM_COUNT>
0

> <PUBCHEM_COMPONENT_COUNT>
1

> <PUBCHEM_CACTVS_TAUTO_COUNT>
1

> <PUBCHEM_CONFORMER_ID>
00003F3500000001

> <PUBCHEM_MMFF94_ENERGY>
28.9763

> <PUBCHEM_FEATURE_SELFOVERLAP>
15.223

> <PUBCHEM_SHAPE_FINGERPRINT>
1 1 18338230574093915372
12423570 1 13051540864160984712
12716301 132 17479714457443109891
12730499 353 18336836398356772361
14251717 144 18411415086035592815
15775835 57 18117837930735383084
16945 1 17257086498703039486
17134986 127 18191589863585877180
18186145 218 18057332888459484641
19786989 88 18261661662752044997
20473742 2 18260260828713566142
20645476 183 17974011953167490292
20645477 70 18343014455430422023
20671657 1 18341891913559932327
20671657 53 18124874560598391919
20708731 107 18410011009565408805
20820808 20 18270677688027610905
21524375 3 18117270565528843685
22112679 90 17629784278330189896
2255824 54 18412265000044822399
23388829 49 18196943162700322226
23419403 2 17680399209999770422
23526113 38 17605845711270718059
23532345 88 18340475682675380469
23558518 356 17613710836177578042
23598291 2 17915475908473006153
25 1 18339652234086232837
257057 1 17833546795476380426
2748010 2 17909565182832730632
3060560 45 18340484581494625213
58051976 378 18269270330518936727
7364860 26 18411132515826183045
81228 2 17328592717539792834
81539 233 18334010635576230581

> <PUBCHEM_SHAPE_MULTIPOLES>
281.11
5.15
3.35
1.15
8.11
0.86
0.01
-1.09
-1.08
-3.25
-0.02
-0.1
-0.22
-0.35

> <PUBCHEM_SHAPE_SELFOVERLAP>
510.09

> <PUBCHEM_SHAPE_VOLUME>
182.5

> <PUBCHEM_COORDINATE_TYPE>
2
5
10

$$$$
