16562
  -OEChem-07202400103D

 27 27  0     0  0  0  0  0  0999 V2000
    3.4383    1.5010    1.0842 F   0  0  0  0  0  0  0  0  0  0  0  0
    4.4836   -0.0662   -0.0019 F   0  0  0  0  0  0  0  0  0  0  0  0
    3.4563    1.5035   -1.0903 F   0  0  0  0  0  0  0  0  0  0  0  0
   -3.0133   -1.4530   -0.0116 O   0  0  0  0  0  0  0  0  0  0  0  0
   -1.5652    0.3679    0.0005 N   0  0  0  0  0  0  0  0  0  0  0  0
   -3.9003    0.6852    0.0013 N   0  0  0  0  0  0  0  0  0  0  0  0
   -0.3009   -0.2721    0.0019 C   0  0  0  0  0  0  0  0  0  0  0  0
    2.0921   -0.1313   -0.0007 C   0  0  0  0  0  0  0  0  0  0  0  0
    0.8482    0.4997   -0.0021 C   0  0  0  0  0  0  0  0  0  0  0  0
   -0.2446   -1.6551    0.0068 C   0  0  0  0  0  0  0  0  0  0  0  0
    2.1677   -1.5242    0.0045 C   0  0  0  0  0  0  0  0  0  0  0  0
   -2.8258   -0.2346    0.0038 C   0  0  0  0  0  0  0  0  0  0  0  0
    0.9995   -2.2860    0.0083 C   0  0  0  0  0  0  0  0  0  0  0  0
    3.3417    0.6833   -0.0042 C   0  0  0  0  0  0  0  0  0  0  0  0
   -5.2915    0.2515   -0.0196 C   0  0  0  0  0  0  0  0  0  0  0  0
   -3.6858    2.1306    0.0194 C   0  0  0  0  0  0  0  0  0  0  0  0
    0.7904    1.5852   -0.0060 H   0  0  0  0  0  0  0  0  0  0  0  0
   -1.5100    1.3804   -0.0032 H   0  0  0  0  0  0  0  0  0  0  0  0
   -1.0919   -2.3224    0.0122 H   0  0  0  0  0  0  0  0  0  0  0  0
    3.1272   -2.0338    0.0058 H   0  0  0  0  0  0  0  0  0  0  0  0
    1.0600   -3.3706    0.0130 H   0  0  0  0  0  0  0  0  0  0  0  0
   -5.7736    0.6563   -0.9141 H   0  0  0  0  0  0  0  0  0  0  0  0
   -5.7924    0.6301    0.8760 H   0  0  0  0  0  0  0  0  0  0  0  0
   -5.3663   -0.8385   -0.0363 H   0  0  0  0  0  0  0  0  0  0  0  0
   -4.6436    2.6589    0.0456 H   0  0  0  0  0  0  0  0  0  0  0  0
   -3.1432    2.4268   -0.8833 H   0  0  0  0  0  0  0  0  0  0  0  0
   -3.1100    2.4028    0.9090 H   0  0  0  0  0  0  0  0  0  0  0  0
  1 14  1  0  0  0  0
  2 14  1  0  0  0  0
  3 14  1  0  0  0  0
  4 12  2  0  0  0  0
  5  7  1  0  0  0  0
  5 12  1  0  0  0  0
  5 18  1  0  0  0  0
  6 12  1  0  0  0  0
  6 15  1  0  0  0  0
  6 16  1  0  0  0  0
  7  9  1  0  0  0  0
  7 10  2  0  0  0  0
  8  9  2  0  0  0  0
  8 11  1  0  0  0  0
  8 14  1  0  0  0  0
  9 17  1  0  0  0  0
 10 13  1  0  0  0  0
 10 19  1  0  0  0  0
 11 13  2  0  0  0  0
 11 20  1  0  0  0  0
 13 21  1  0  0  0  0
 15 22  1  0  0  0  0
 15 23  1  0  0  0  0
 15 24  1  0  0  0  0
 16 25  1  0  0  0  0
 16 26  1  0  0  0  0
 16 27  1  0  0  0  0
M  END
> <PUBCHEM_COMPOUND_CID>
16562

> <PUBCHEM_CONFORMER_RMSD>
0.6

> <PUBCHEM_CONFORMER_DIVERSEORDER>
1
7
10
3
5
8
2
4
9
6

> <PUBCHEM_MMFF94_PARTIAL_CHARGES>
21
1 -0.34
10 -0.15
11 -0.15
12 0.69
13 -0.15
14 1.16
15 0.3
16 0.3
17 0.15
18 0.37
19 0.15
2 -0.34
20 0.15
21 0.15
3 -0.34
4 -0.57
5 -0.55
6 -0.66
7 0.12
8 -0.14
9 -0.15

> <PUBCHEM_EFFECTIVE_ROTOR_COUNT>
4

> <PUBCHEM_PHARMACOPHORE_FEATURES>
3
1 4 acceptor
1 5 donor
6 7 8 9 10 11 13 rings

> <PUBCHEM_HEAVY_ATOM_COUNT>
16

> <PUBCHEM_ATOM_DEF_STEREO_COUNT>
0

> <PUBCHEM_ATOM_UDEF_STEREO_COUNT>
0

> <PUBCHEM_BOND_DEF_STEREO_COUNT>
0

> <PUBCHEM_BOND_UDEF_STEREO_COUNT>
0

> <PUBCHEM_ISOTOPIC_ATOM_COUNT>
0

> <PUBCHEM_COMPONENT_COUNT>
1

> <PUBCHEM_CACTVS_TAUTO_COUNT>
2

> <PUBCHEM_CONFORMER_ID>
000040B200000001

> <PUBCHEM_MMFF94_ENERGY>
40.0119

> <PUBCHEM_FEATURE_SELFOVERLAP>
15.223

> <PUBCHEM_SHAPE_FINGERPRINT>
10465860 228 18337677395037903624
10608611 8 18337389323439936189
10980938 120 18411419471117918299
11132069 177 18333728035344494461
11471102 20 18411698742655242742
11543360 7 15482664731935233073
122479 349 18262240022731840362
12346645 44 18410572877387589843
13081056 2 18342738515986040985
13380535 76 18408324392998935619
14123255 52 18342452664221085523
14325111 11 18410575089047905379
14415576 193 18409733923913373374
14897335 6 18411135823046206279
15375358 24 18040719156305389459
15442244 35 17979636728063312027
15536298 74 18341614767689028175
15775835 57 18342176669854915631
17834072 33 18201712960359121215
18186145 218 17845945112055900880
19784866 9 18338511950360238034
20645477 56 18335421240855516901
20645477 70 18200595783035407015
212847 35 18410856573057798792
21524375 3 18410855464639725234
23402539 116 18201712981649146468
23402655 69 18273215283159201334
23559900 14 18127123065940221379
2916195 48 17916291909420427944
3071541 37 18335989688114129478
3545911 37 18409451375722352719
42 15 8574710204562543223
449060 50 18335423452684319327
449060 62 18409732845945264110
474 4 18113904861694087165
4990 188 17918281943471712686
5104073 3 18336829672269156545
58051976 378 18412544310320780887
633830 44 18343299292727968644
7364860 26 18270400460768651454
77779 3 18411420566746061367
81539 233 18334012774338367414
9709674 26 18339366258390296135
9999458 23 17748830718027217558

> <PUBCHEM_SHAPE_MULTIPOLES>
291.62
9.04
2.02
0.69
5.71
0.3
0
-3.95
-0.04
-0.34
0.01
-0.34
-0.16
-0.02

> <PUBCHEM_SHAPE_SELFOVERLAP>
603.96

> <PUBCHEM_SHAPE_VOLUME>
168.3

> <PUBCHEM_COORDINATE_TYPE>
2
5
10

$$$$
