16606
  -OEChem-07202400113D

 24 25  0     1  0  0  0  0  0999 V2000
    4.3291   -0.6463    0.0123 O   0  0  0  0  0  0  0  0  0  0  0  0
    1.0523    0.4426   -0.2947 O   0  0  0  0  0  0  0  0  0  0  0  0
    3.2065   -0.0379    0.6342 C   0  0  1  0  0  0  0  0  0  0  0  0
    4.0532    0.7202   -0.3210 C   0  0  0  0  0  0  0  0  0  0  0  0
    1.8923   -0.6185    0.1570 C   0  0  0  0  0  0  0  0  0  0  0  0
   -0.2916    0.2607   -0.1795 C   0  0  0  0  0  0  0  0  0  0  0  0
   -1.1297    1.3590    0.0138 C   0  0  0  0  0  0  0  0  0  0  0  0
   -0.8311   -1.0235   -0.2550 C   0  0  0  0  0  0  0  0  0  0  0  0
   -3.0465   -0.1109    0.0562 C   0  0  0  0  0  0  0  0  0  0  0  0
   -2.5070    1.1732    0.1318 C   0  0  0  0  0  0  0  0  0  0  0  0
   -2.2086   -1.2092   -0.1371 C   0  0  0  0  0  0  0  0  0  0  0  0
   -4.5189   -0.3095    0.1821 C   0  0  0  0  0  0  0  0  0  0  0  0
    3.2428    0.2064    1.6851 H   0  0  0  0  0  0  0  0  0  0  0  0
    3.6788    0.9250   -1.3155 H   0  0  0  0  0  0  0  0  0  0  0  0
    4.7222    1.4739    0.0740 H   0  0  0  0  0  0  0  0  0  0  0  0
    1.4551   -1.1565    1.0075 H   0  0  0  0  0  0  0  0  0  0  0  0
    2.0545   -1.3199   -0.6702 H   0  0  0  0  0  0  0  0  0  0  0  0
   -0.7150    2.3616    0.0730 H   0  0  0  0  0  0  0  0  0  0  0  0
   -0.2176   -1.9018   -0.4319 H   0  0  0  0  0  0  0  0  0  0  0  0
   -3.1496    2.0370    0.2803 H   0  0  0  0  0  0  0  0  0  0  0  0
   -2.6183   -2.2136   -0.2052 H   0  0  0  0  0  0  0  0  0  0  0  0
   -4.7496   -1.2819    0.6304 H   0  0  0  0  0  0  0  0  0  0  0  0
   -4.9671    0.4544    0.8265 H   0  0  0  0  0  0  0  0  0  0  0  0
   -4.9907   -0.2571   -0.8041 H   0  0  0  0  0  0  0  0  0  0  0  0
  1  3  1  0  0  0  0
  1  4  1  0  0  0  0
  2  5  1  0  0  0  0
  2  6  1  0  0  0  0
  3  4  1  0  0  0  0
  3  5  1  0  0  0  0
  3 13  1  0  0  0  0
  4 14  1  0  0  0  0
  4 15  1  0  0  0  0
  5 16  1  0  0  0  0
  5 17  1  0  0  0  0
  6  7  2  0  0  0  0
  6  8  1  0  0  0  0
  7 10  1  0  0  0  0
  7 18  1  0  0  0  0
  8 11  2  0  0  0  0
  8 19  1  0  0  0  0
  9 10  2  0  0  0  0
  9 11  1  0  0  0  0
  9 12  1  0  0  0  0
 10 20  1  0  0  0  0
 11 21  1  0  0  0  0
 12 22  1  0  0  0  0
 12 23  1  0  0  0  0
 12 24  1  0  0  0  0
M  END
> <PUBCHEM_COMPOUND_CID>
16606

> <PUBCHEM_CONFORMER_RMSD>
0.6

> <PUBCHEM_CONFORMER_DIVERSEORDER>
2
14
6
4
10
3
5
7
1
13
8
12
11
9

> <PUBCHEM_MMFF94_PARTIAL_CHARGES>
19
1 -0.3
10 -0.15
11 -0.15
12 0.14
13 0.1
14 0.1
15 0.1
18 0.15
19 0.15
2 -0.36
20 0.15
21 0.15
3 -0.05
4 -0.05
5 0.38
6 0.08
7 -0.15
8 -0.15
9 -0.14

> <PUBCHEM_EFFECTIVE_ROTOR_COUNT>
3.6

> <PUBCHEM_PHARMACOPHORE_FEATURES>
3
1 1 acceptor
1 2 acceptor
6 6 7 8 9 10 11 rings

> <PUBCHEM_HEAVY_ATOM_COUNT>
12

> <PUBCHEM_ATOM_DEF_STEREO_COUNT>
0

> <PUBCHEM_ATOM_UDEF_STEREO_COUNT>
1

> <PUBCHEM_BOND_DEF_STEREO_COUNT>
0

> <PUBCHEM_BOND_UDEF_STEREO_COUNT>
0

> <PUBCHEM_ISOTOPIC_ATOM_COUNT>
0

> <PUBCHEM_COMPONENT_COUNT>
1

> <PUBCHEM_CACTVS_TAUTO_COUNT>
1

> <PUBCHEM_CONFORMER_ID>
000040DE00000002

> <PUBCHEM_MMFF94_ENERGY>
35.8006

> <PUBCHEM_FEATURE_SELFOVERLAP>
15.223

> <PUBCHEM_SHAPE_FINGERPRINT>
11062470 55 17095240323834486446
11401426 45 18341889689320760893
12119455 92 16773794775471349861
12932764 1 17274526672922501398
13024252 1 15430036544011545877
13690532 89 18334574650860817719
13897977 58 18411143557976383772
14144814 61 18335980896131022976
14325111 11 18411136896713956360
15219456 202 17774166686391582447
190213 19 18040152920411686766
200 152 14418131824655484113
20279233 1 17275107232484514158
20510252 161 18201441324820286897
20528008 55 18343014510436522569
20645464 45 17704077287161000727
20871998 184 18130227159211655871
22485316 2 15430033270734757219
23402539 116 18131062736994025957
23559900 14 18342453751538862520
42 15 18408324371624014042
43471831 8 18262515884097046771
474 4 17241899881255944300

> <PUBCHEM_SHAPE_MULTIPOLES>
235.22
8.23
1.23
0.67
4.34
0.12
0.02
-0.41
0.47
-0.47
-0.03
0.1
0
-0.18

> <PUBCHEM_SHAPE_SELFOVERLAP>
485.621

> <PUBCHEM_SHAPE_VOLUME>
137.2

> <PUBCHEM_COORDINATE_TYPE>
2
5
10

$$$$
