16656802
  -OEChem-07202400543D

 33 34  0     0  0  0  0  0  0999 V2000
    4.7104   -0.9978   -0.3422 Cl  0  0  0  0  0  0  0  0  0  0  0  0
   -5.6315   -0.3744    0.7056 Cl  0  0  0  0  0  0  0  0  0  0  0  0
   -1.2155    1.0416   -1.3790 F   0  0  0  0  0  0  0  0  0  0  0  0
   -3.9063    1.2909   -1.1036 O   0  0  0  0  0  0  0  0  0  0  0  0
    2.6622    2.4666   -0.1850 O   0  0  0  0  0  0  0  0  0  0  0  0
    3.8700    1.4492    1.4769 O   0  0  0  0  0  0  0  0  0  0  0  0
    0.9793    0.2491    0.3602 N   0  0  0  0  0  0  0  0  0  0  0  0
    2.8276   -3.2923   -0.9611 N   0  0  0  0  0  0  0  0  0  0  0  0
   -1.1602   -0.7347    0.1967 C   0  0  0  0  0  0  0  0  0  0  0  0
    0.2731   -0.8599    0.0452 C   0  0  0  0  0  0  0  0  0  0  0  0
    0.8436   -2.0438   -0.3934 C   0  0  0  0  0  0  0  0  0  0  0  0
   -1.8618    0.2264   -0.5313 C   0  0  0  0  0  0  0  0  0  0  0  0
   -1.8404   -1.5776    1.0757 C   0  0  0  0  0  0  0  0  0  0  0  0
    2.2278   -2.0930   -0.5167 C   0  0  0  0  0  0  0  0  0  0  0  0
   -3.2435    0.3445   -0.3803 C   0  0  0  0  0  0  0  0  0  0  0  0
    2.3219    0.1636    0.2280 C   0  0  0  0  0  0  0  0  0  0  0  0
    2.9885   -0.9725   -0.2019 C   0  0  0  0  0  0  0  0  0  0  0  0
   -3.2219   -1.4596    1.2267 C   0  0  0  0  0  0  0  0  0  0  0  0
   -3.9235   -0.4987    0.4987 C   0  0  0  0  0  0  0  0  0  0  0  0
    3.0282    1.3884    0.5804 C   0  0  0  0  0  0  0  0  0  0  0  0
   -4.0467    2.5792   -0.5089 C   0  0  0  0  0  0  0  0  0  0  0  0
    3.3187    3.7049    0.1091 C   0  0  0  0  0  0  0  0  0  0  0  0
    0.2339   -2.9085   -0.6400 H   0  0  0  0  0  0  0  0  0  0  0  0
   -1.3119   -2.3294    1.6573 H   0  0  0  0  0  0  0  0  0  0  0  0
   -3.7373   -2.1229    1.9167 H   0  0  0  0  0  0  0  0  0  0  0  0
    2.2549   -4.0947   -1.1867 H   0  0  0  0  0  0  0  0  0  0  0  0
    3.8330   -3.3441   -1.0583 H   0  0  0  0  0  0  0  0  0  0  0  0
   -4.6588    3.1971   -1.1716 H   0  0  0  0  0  0  0  0  0  0  0  0
   -3.0666    3.0534   -0.3962 H   0  0  0  0  0  0  0  0  0  0  0  0
   -4.5430    2.5132    0.4642 H   0  0  0  0  0  0  0  0  0  0  0  0
    2.9307    4.4655   -0.5736 H   0  0  0  0  0  0  0  0  0  0  0  0
    4.3969    3.6076   -0.0486 H   0  0  0  0  0  0  0  0  0  0  0  0
    3.1033    4.0118    1.1369 H   0  0  0  0  0  0  0  0  0  0  0  0
  1 17  1  0  0  0  0
  2 19  1  0  0  0  0
  3 12  1  0  0  0  0
  4 15  1  0  0  0  0
  4 21  1  0  0  0  0
  5 20  1  0  0  0  0
  5 22  1  0  0  0  0
  6 20  2  0  0  0  0
  7 10  2  0  0  0  0
  7 16  1  0  0  0  0
  8 14  1  0  0  0  0
  8 26  1  0  0  0  0
  8 27  1  0  0  0  0
  9 10  1  0  0  0  0
  9 12  2  0  0  0  0
  9 13  1  0  0  0  0
 10 11  1  0  0  0  0
 11 14  2  0  0  0  0
 11 23  1  0  0  0  0
 12 15  1  0  0  0  0
 13 18  2  0  0  0  0
 13 24  1  0  0  0  0
 14 17  1  0  0  0  0
 15 19  2  0  0  0  0
 16 17  2  0  0  0  0
 16 20  1  0  0  0  0
 18 19  1  0  0  0  0
 18 25  1  0  0  0  0
 21 28  1  0  0  0  0
 21 29  1  0  0  0  0
 21 30  1  0  0  0  0
 22 31  1  0  0  0  0
 22 32  1  0  0  0  0
 22 33  1  0  0  0  0
M  END
> <PUBCHEM_COMPOUND_CID>
16656802

> <PUBCHEM_CONFORMER_RMSD>
0.6

> <PUBCHEM_CONFORMER_DIVERSEORDER>
2
28
17
15
14
3
18
8
27
16
4
24
13
12
7
22
23
20
10
1
25
26
19
21
9
11
5
6

> <PUBCHEM_MMFF94_PARTIAL_CHARGES>
26
1 -0.18
10 0.31
11 -0.15
12 0.19
13 -0.15
14 0.1
15 0.08
16 0.4
17 0.18
18 -0.15
19 0.18
2 -0.18
20 0.63
21 0.28
22 0.28
23 0.15
24 0.15
25 0.15
26 0.4
27 0.4
3 -0.19
4 -0.36
5 -0.43
6 -0.57
7 -0.62
8 -0.9

> <PUBCHEM_EFFECTIVE_ROTOR_COUNT>
4

> <PUBCHEM_PHARMACOPHORE_FEATURES>
7
1 4 acceptor
1 6 acceptor
1 7 acceptor
1 8 cation
1 8 donor
6 7 10 11 14 16 17 rings
6 9 12 13 15 18 19 rings

> <PUBCHEM_HEAVY_ATOM_COUNT>
22

> <PUBCHEM_ATOM_DEF_STEREO_COUNT>
0

> <PUBCHEM_ATOM_UDEF_STEREO_COUNT>
0

> <PUBCHEM_BOND_DEF_STEREO_COUNT>
0

> <PUBCHEM_BOND_UDEF_STEREO_COUNT>
0

> <PUBCHEM_ISOTOPIC_ATOM_COUNT>
0

> <PUBCHEM_COMPONENT_COUNT>
1

> <PUBCHEM_CACTVS_TAUTO_COUNT>
2

> <PUBCHEM_CONFORMER_ID>
00FE29A200000002

> <PUBCHEM_MMFF94_ENERGY>
86.7955

> <PUBCHEM_FEATURE_SELFOVERLAP>
35.522

> <PUBCHEM_SHAPE_FINGERPRINT>
10165383 225 17910971458136318744
10608611 8 18408040702045427239
10646746 165 18187082836569017651
10871710 139 16750724053782941740
11595378 159 16081084857622973285
12035758 1 18340188762260393848
12236239 1 16415480424195466579
12403259 226 18116431440541044847
12403259 415 18409730655485523929
12507560 40 18408885143912796305
12633257 1 17895738635082347096
12788726 201 17184190539945254466
13134695 92 17560227012773483298
14026960 21 18263927820187817176
14251764 38 18409444782742513753
14866123 147 16393245782136542234
15219456 202 18409448081123980923
15342168 16 18196938983333412665
15806764 133 18267604436784116287
15961568 22 17677899113357638956
18186145 218 18130796689086252462
18785283 64 18409449224080984932
200 152 17846495885946187171
20510252 161 18334858299618624585
20600515 1 16589710291131898471
20645477 56 18260832579603447011
20645477 70 17917435302243874142
20681677 76 18408317813272224079
21065198 57 18409449167829997083
21709351 56 18342452651584415758
22289505 5 18268707208655989028
22943178 12 18335423443799427283
23557571 272 18113344089526520327
23559900 14 18337670819432625419
350125 39 18409177622585143822
474 4 18270965759920828226
49207404 50 18335140950588108080
495365 180 18201422662902386562
5104073 3 18262519174321005755
5281201 14 18339929216637733407
6049 1 18262813890523750523
621550 34 18265905829016917531
6287921 2 18335147530515020317
77492 1 16415479324710193059
7808743 9 17546165663804900944
90316 7 16588290692623955781
9709674 26 18409167697280102911
9999458 23 18410298038457462494

> <PUBCHEM_SHAPE_MULTIPOLES>
421.65
10.08
3.3
1.06
5.34
1.93
-0.08
2.33
-0.89
-3.38
0.42
0.28
0
2.2

> <PUBCHEM_SHAPE_SELFOVERLAP>
893.209

> <PUBCHEM_SHAPE_VOLUME>
240.5

> <PUBCHEM_COORDINATE_TYPE>
2
5
10

$$$$
