1674
  -OEChem-07192422023D

 37 41  0     0  0  0  0  0  0999 V2000
   -1.0064    1.1677    0.0006 C   0  0  0  0  0  0  0  0  0  0  0  0
   -1.8128    0.0611    0.0002 C   0  0  0  0  0  0  0  0  0  0  0  0
   -1.8413    2.4236   -0.0001 C   0  0  0  0  0  0  0  0  0  0  0  0
   -3.1373    0.4158   -0.0002 C   0  0  0  0  0  0  0  0  0  0  0  0
   -3.3025    1.9042    0.0007 C   0  0  0  0  0  0  0  0  0  0  0  0
    0.3850    1.0151    0.0005 C   0  0  0  0  0  0  0  0  0  0  0  0
   -1.3503   -1.2482    0.0002 C   0  0  0  0  0  0  0  0  0  0  0  0
    0.9505   -0.2992    0.0005 C   0  0  0  0  0  0  0  0  0  0  0  0
   -4.1059   -0.5733   -0.0007 C   0  0  0  0  0  0  0  0  0  0  0  0
    0.0493   -1.4109    0.0004 C   0  0  0  0  0  0  0  0  0  0  0  0
    2.3838   -0.4389    0.0004 C   0  0  0  0  0  0  0  0  0  0  0  0
   -2.3321   -2.2579   -0.0001 C   0  0  0  0  0  0  0  0  0  0  0  0
    1.2245    2.1347    0.0001 C   0  0  0  0  0  0  0  0  0  0  0  0
   -3.6973   -1.9156   -0.0006 C   0  0  0  0  0  0  0  0  0  0  0  0
    3.1972    0.7250   -0.0003 C   0  0  0  0  0  0  0  0  0  0  0  0
   -5.5564   -0.2343   -0.0004 C   0  0  0  0  0  0  0  0  0  0  0  0
    2.6074    1.9906   -0.0004 C   0  0  0  0  0  0  0  0  0  0  0  0
    3.0626   -1.6841    0.0007 C   0  0  0  0  0  0  0  0  0  0  0  0
    4.5987    0.6204   -0.0010 C   0  0  0  0  0  0  0  0  0  0  0  0
    4.4575   -1.7743    0.0004 C   0  0  0  0  0  0  0  0  0  0  0  0
    5.2259   -0.6213   -0.0008 C   0  0  0  0  0  0  0  0  0  0  0  0
   -1.6475    3.0244   -0.8948 H   0  0  0  0  0  0  0  0  0  0  0  0
   -1.6470    3.0260    0.8936 H   0  0  0  0  0  0  0  0  0  0  0  0
   -3.8339    2.2447    0.8954 H   0  0  0  0  0  0  0  0  0  0  0  0
   -3.8352    2.2459   -0.8928 H   0  0  0  0  0  0  0  0  0  0  0  0
    0.4288   -2.4303    0.0004 H   0  0  0  0  0  0  0  0  0  0  0  0
   -2.0443   -3.3061   -0.0002 H   0  0  0  0  0  0  0  0  0  0  0  0
    0.8150    3.1426    0.0000 H   0  0  0  0  0  0  0  0  0  0  0  0
   -4.4345   -2.7153   -0.0007 H   0  0  0  0  0  0  0  0  0  0  0  0
    3.2212    2.8896   -0.0009 H   0  0  0  0  0  0  0  0  0  0  0  0
   -5.8126    0.3427    0.8942 H   0  0  0  0  0  0  0  0  0  0  0  0
   -5.8113    0.3510   -0.8899 H   0  0  0  0  0  0  0  0  0  0  0  0
   -6.1844   -1.1316   -0.0053 H   0  0  0  0  0  0  0  0  0  0  0  0
    2.5157   -2.6234    0.0013 H   0  0  0  0  0  0  0  0  0  0  0  0
    5.2202    1.5143   -0.0016 H   0  0  0  0  0  0  0  0  0  0  0  0
    4.9371   -2.7488    0.0007 H   0  0  0  0  0  0  0  0  0  0  0  0
    6.3096   -0.6855   -0.0013 H   0  0  0  0  0  0  0  0  0  0  0  0
  1  2  2  0  0  0  0
  1  3  1  0  0  0  0
  1  6  1  0  0  0  0
  2  4  1  0  0  0  0
  2  7  1  0  0  0  0
  3  5  1  0  0  0  0
  3 22  1  0  0  0  0
  3 23  1  0  0  0  0
  4  5  1  0  0  0  0
  4  9  2  0  0  0  0
  5 24  1  0  0  0  0
  5 25  1  0  0  0  0
  6  8  2  0  0  0  0
  6 13  1  0  0  0  0
  7 10  2  0  0  0  0
  7 12  1  0  0  0  0
  8 10  1  0  0  0  0
  8 11  1  0  0  0  0
  9 14  1  0  0  0  0
  9 16  1  0  0  0  0
 10 26  1  0  0  0  0
 11 15  1  0  0  0  0
 11 18  2  0  0  0  0
 12 14  2  0  0  0  0
 12 27  1  0  0  0  0
 13 17  2  0  0  0  0
 13 28  1  0  0  0  0
 14 29  1  0  0  0  0
 15 17  1  0  0  0  0
 15 19  2  0  0  0  0
 16 31  1  0  0  0  0
 16 32  1  0  0  0  0
 16 33  1  0  0  0  0
 17 30  1  0  0  0  0
 18 20  1  0  0  0  0
 18 34  1  0  0  0  0
 19 21  1  0  0  0  0
 19 35  1  0  0  0  0
 20 21  2  0  0  0  0
 20 36  1  0  0  0  0
 21 37  1  0  0  0  0
M  END
> <PUBCHEM_COMPOUND_CID>
1674

> <PUBCHEM_CONFORMER_RMSD>
0.6

> <PUBCHEM_CONFORMER_DIVERSEORDER>
1

> <PUBCHEM_MMFF94_PARTIAL_CHARGES>
24
1 -0.14
10 -0.15
12 -0.15
13 -0.15
14 -0.15
16 0.14
17 -0.15
18 -0.15
19 -0.15
20 -0.15
21 -0.15
26 0.15
27 0.15
28 0.15
29 0.15
3 0.14
30 0.15
34 0.15
35 0.15
36 0.15
37 0.15
4 -0.14
5 0.14
9 -0.14

> <PUBCHEM_EFFECTIVE_ROTOR_COUNT>
0.4

> <PUBCHEM_PHARMACOPHORE_FEATURES>
5
5 1 2 3 4 5 rings
6 1 2 6 7 8 10 rings
6 11 15 18 19 20 21 rings
6 2 4 7 9 12 14 rings
6 6 8 11 13 15 17 rings

> <PUBCHEM_HEAVY_ATOM_COUNT>
21

> <PUBCHEM_ATOM_DEF_STEREO_COUNT>
0

> <PUBCHEM_ATOM_UDEF_STEREO_COUNT>
0

> <PUBCHEM_BOND_DEF_STEREO_COUNT>
0

> <PUBCHEM_BOND_UDEF_STEREO_COUNT>
0

> <PUBCHEM_ISOTOPIC_ATOM_COUNT>
0

> <PUBCHEM_COMPONENT_COUNT>
1

> <PUBCHEM_CACTVS_TAUTO_COUNT>
1

> <PUBCHEM_CONFORMER_ID>
0000068A00000001

> <PUBCHEM_MMFF94_ENERGY>
78.9001

> <PUBCHEM_FEATURE_SELFOVERLAP>
25.624

> <PUBCHEM_SHAPE_FINGERPRINT>
10616163 171 18412265051389381006
10693767 8 18056739144081733959
10967382 1 18410574023832563045
11578080 2 16986575705673254315
12107183 9 17688024219890519882
12403259 226 18411975888379213785
13140716 1 18339368577535050939
13288520 33 18412265025471461902
13583140 156 14189580723752117935
138480 1 15096206817363275040
13862211 1 18411696595625372815
14341114 176 18410580590832251440
14790565 3 17691693285565949689
14866123 147 17119740475623247474
15196674 1 18410575054888594596
15209289 33 18260551121120907515
15352361 1 18410855473213575726
15442244 35 18410575059188693784
15536298 74 18341611555369735488
16945 1 18410856525691533829
17349148 13 18131067121406548671
17492 89 18410575106349840938
17804303 29 18412547599944157868
1813 80 17312822675903224652
19141452 34 18343585178921272839
19591789 44 18265332815633238170
200 152 18060135457704218215
20028762 73 18202277035273026663
20510252 161 18271807874195770601
21236236 1 18341612569309344249
21267235 1 18410301310578866074
21279426 13 18265330608352072029
221490 88 18263932192654324818
23366157 5 18041840748413125892
23402539 116 18343295985961944191
23557571 272 18201445735925428692
23559900 14 18339918333143509304
2871803 45 18333726922784375986
3004659 81 18260268521759427470
335352 9 18410856543024416733
34934 24 18340482390960771694
350125 39 18410577258449800393
3545911 37 18411419518578771374
4214541 1 18410575054698710016
474 4 17313675974568235812
5104073 3 18411980243691849904
559249 180 18262512568582331946
59755656 215 18409449146392006143
7364860 26 18269554000208416640
77779 3 18410575080769064238
8809292 202 18334297603700204691
9709674 26 18410579504490855862

> <PUBCHEM_SHAPE_MULTIPOLES>
432.17
10.14
2.56
0.62
1.78
0.38
0
-2.69
0
-0.42
0
0
0
0

> <PUBCHEM_SHAPE_SELFOVERLAP>
1006.249

> <PUBCHEM_SHAPE_VOLUME>
202.8

> <PUBCHEM_COORDINATE_TYPE>
2
5
10

$$$$
