180089
  -OEChem-07202400473D

 46 47  0     1  0  0  0  0  0999 V2000
    5.3495   -1.6112    0.6675 F   0  0  0  0  0  0  0  0  0  0  0  0
   -4.6793    0.3889    0.3559 O   0  0  0  0  0  0  0  0  0  0  0  0
   -2.1598   -2.1559    0.5799 O   0  0  0  0  0  0  0  0  0  0  0  0
    3.1110   -1.6007   -0.9340 O   0  0  0  0  0  0  0  0  0  0  0  0
   -4.3130   -1.5167   -0.8905 O   0  0  0  0  0  0  0  0  0  0  0  0
    6.2262    4.1726    0.6201 N   0  0  0  0  0  0  0  0  0  0  0  0
   -6.4330    1.9939    0.0701 C   0  0  0  0  0  0  0  0  0  0  0  0
   -7.6738    2.3793   -0.7304 C   0  0  0  0  0  0  0  0  0  0  0  0
   -5.8165    0.6982   -0.4377 C   0  0  0  0  0  0  0  0  0  0  0  0
   -2.8449   -0.9748    0.9664 C   0  0  1  0  0  0  0  0  0  0  0  0
   -4.0092   -0.7582    0.0211 C   0  0  0  0  0  0  0  0  0  0  0  0
   -8.3111    3.6505   -0.1925 C   0  0  0  0  0  0  0  0  0  0  0  0
   -3.3191   -1.1514    2.3983 C   0  0  0  0  0  0  0  0  0  0  0  0
   -0.8482   -2.0172    0.2035 C   0  0  0  0  0  0  0  0  0  0  0  0
    0.0752   -1.5033    1.1058 C   0  0  0  0  0  0  0  0  0  0  0  0
   -0.4579   -2.3927   -1.0764 C   0  0  0  0  0  0  0  0  0  0  0  0
    1.8095   -1.7375   -0.5600 C   0  0  0  0  0  0  0  0  0  0  0  0
    1.4091   -1.3627    0.7226 C   0  0  0  0  0  0  0  0  0  0  0  0
    0.8760   -2.2524   -1.4595 C   0  0  0  0  0  0  0  0  0  0  0  0
    3.7515   -0.4155   -0.6139 C   0  0  0  0  0  0  0  0  0  0  0  0
    4.8743   -0.4515    0.1931 C   0  0  0  0  0  0  0  0  0  0  0  0
    3.2512    0.7746   -1.1106 C   0  0  0  0  0  0  0  0  0  0  0  0
    5.5186    0.7434    0.5143 C   0  0  0  0  0  0  0  0  0  0  0  0
    3.8954    1.9694   -0.7890 C   0  0  0  0  0  0  0  0  0  0  0  0
    5.0291    1.9537    0.0234 C   0  0  0  0  0  0  0  0  0  0  0  0
    5.6892    3.1774    0.3525 C   0  0  0  0  0  0  0  0  0  0  0  0
   -5.6860    2.7962    0.0237 H   0  0  0  0  0  0  0  0  0  0  0  0
   -6.6860    1.8818    1.1319 H   0  0  0  0  0  0  0  0  0  0  0  0
   -8.4090    1.5671   -0.6927 H   0  0  0  0  0  0  0  0  0  0  0  0
   -7.4067    2.5266   -1.7833 H   0  0  0  0  0  0  0  0  0  0  0  0
   -6.5448   -0.1181   -0.3638 H   0  0  0  0  0  0  0  0  0  0  0  0
   -5.5114    0.8133   -1.4845 H   0  0  0  0  0  0  0  0  0  0  0  0
   -2.2021   -0.0880    0.8861 H   0  0  0  0  0  0  0  0  0  0  0  0
   -9.1969    3.9088   -0.7813 H   0  0  0  0  0  0  0  0  0  0  0  0
   -7.6121    4.4914   -0.2434 H   0  0  0  0  0  0  0  0  0  0  0  0
   -8.6211    3.5236    0.8497 H   0  0  0  0  0  0  0  0  0  0  0  0
   -2.4799   -1.3700    3.0664 H   0  0  0  0  0  0  0  0  0  0  0  0
   -3.8313   -0.2576    2.7681 H   0  0  0  0  0  0  0  0  0  0  0  0
   -4.0147   -1.9950    2.4767 H   0  0  0  0  0  0  0  0  0  0  0  0
   -0.2183   -1.2198    2.1120 H   0  0  0  0  0  0  0  0  0  0  0  0
   -1.1822   -2.7934   -1.7798 H   0  0  0  0  0  0  0  0  0  0  0  0
    2.1174   -0.9781    1.4512 H   0  0  0  0  0  0  0  0  0  0  0  0
    1.1818   -2.5453   -2.4602 H   0  0  0  0  0  0  0  0  0  0  0  0
    2.3756    0.7988   -1.7525 H   0  0  0  0  0  0  0  0  0  0  0  0
    6.4012    0.7145    1.1487 H   0  0  0  0  0  0  0  0  0  0  0  0
    3.5031    2.9046   -1.1813 H   0  0  0  0  0  0  0  0  0  0  0  0
  1 21  1  0  0  0  0
  2  9  1  0  0  0  0
  2 11  1  0  0  0  0
  3 10  1  0  0  0  0
  3 14  1  0  0  0  0
  4 17  1  0  0  0  0
  4 20  1  0  0  0  0
  5 11  2  0  0  0  0
  6 26  3  0  0  0  0
  7  8  1  0  0  0  0
  7  9  1  0  0  0  0
  7 27  1  0  0  0  0
  7 28  1  0  0  0  0
  8 12  1  0  0  0  0
  8 29  1  0  0  0  0
  8 30  1  0  0  0  0
  9 31  1  0  0  0  0
  9 32  1  0  0  0  0
 10 11  1  0  0  0  0
 10 13  1  0  0  0  0
 10 33  1  0  0  0  0
 12 34  1  0  0  0  0
 12 35  1  0  0  0  0
 12 36  1  0  0  0  0
 13 37  1  0  0  0  0
 13 38  1  0  0  0  0
 13 39  1  0  0  0  0
 14 15  2  0  0  0  0
 14 16  1  0  0  0  0
 15 18  1  0  0  0  0
 15 40  1  0  0  0  0
 16 19  2  0  0  0  0
 16 41  1  0  0  0  0
 17 18  2  0  0  0  0
 17 19  1  0  0  0  0
 18 42  1  0  0  0  0
 19 43  1  0  0  0  0
 20 21  2  0  0  0  0
 20 22  1  0  0  0  0
 21 23  1  0  0  0  0
 22 24  2  0  0  0  0
 22 44  1  0  0  0  0
 23 25  2  0  0  0  0
 23 45  1  0  0  0  0
 24 25  1  0  0  0  0
 24 46  1  0  0  0  0
 25 26  1  0  0  0  0
M  END
> <PUBCHEM_COMPOUND_CID>
180089

> <PUBCHEM_CONFORMER_RMSD>
1

> <PUBCHEM_CONFORMER_DIVERSEORDER>
1
79
127
100
84
133
185
149
90
78
114
30
98
42
22
137
43
10
112
23
111
27
201
180
209
136
47
173
12
68
165
19
153
160
170
62
125
141
155
3
77
55
39
139
9
80
208
132
113
171
16
193
24
110
178
14
72
109
181
61
119
89
52
169
207
64
194
206
146
54
196
188
152
7
104
96
45
5
105
18
50
202
168
123
34
20
99
44
97
145
197
124
46
51
121
195
56
116
148
106
15
192
186
70
187
182
117
11
6
172
179
58
81
95
203
122
29
205
142
49
131
40
59
53
204
76
85
25
163
91
183
150
83
151
92
130
184
38
4
157
82
93
199
87
176
88
159
26
129
103
118
35
65
161
13
75
134
138
177
166
41
60
36
191
21
17
140
108
37
63
200
94
2
8
175
147
158
66
33
69
102
101
143
28
128
154
86
74
198
167
73
164
71
126
32
156
120
189
115
135
174
31
107
162
190
57
67
144
48

> <PUBCHEM_MMFF94_PARTIAL_CHARGES>
29
1 -0.19
10 0.34
11 0.66
14 0.08
15 -0.15
16 -0.15
17 0.08
18 -0.15
19 -0.15
2 -0.43
20 0.08
21 0.19
22 -0.15
23 -0.15
24 -0.15
25 0.07
26 0.48
3 -0.36
4 -0.17
40 0.15
41 0.15
42 0.15
43 0.15
44 0.15
45 0.15
46 0.15
5 -0.57
6 -0.56
9 0.28

> <PUBCHEM_EFFECTIVE_ROTOR_COUNT>
9

> <PUBCHEM_PHARMACOPHORE_FEATURES>
7
1 12 hydrophobe
1 3 acceptor
1 4 acceptor
1 5 acceptor
1 6 acceptor
6 14 15 16 17 18 19 rings
6 20 21 22 23 24 25 rings

> <PUBCHEM_HEAVY_ATOM_COUNT>
26

> <PUBCHEM_ATOM_DEF_STEREO_COUNT>
1

> <PUBCHEM_ATOM_UDEF_STEREO_COUNT>
0

> <PUBCHEM_BOND_DEF_STEREO_COUNT>
0

> <PUBCHEM_BOND_UDEF_STEREO_COUNT>
0

> <PUBCHEM_ISOTOPIC_ATOM_COUNT>
0

> <PUBCHEM_COMPONENT_COUNT>
1

> <PUBCHEM_CACTVS_TAUTO_COUNT>
1

> <PUBCHEM_CONFORMER_ID>
0002BF7900000001

> <PUBCHEM_MMFF94_ENERGY>
65.26

> <PUBCHEM_FEATURE_SELFOVERLAP>
35.53

> <PUBCHEM_SHAPE_FINGERPRINT>
11135609 127 18341605984897593773
12633257 1 15864360176765440807
12661589 4 10375878442259627940
12778500 126 17676766475142337650
12895837 130 18412544349455599677
13782708 43 10159693574096621321
14251764 30 8574718996049498293
14251764 38 18340775836301707704
14556957 393 16988567836666034137
14739800 52 17968933085720421787
15238133 3 17896044415969822596
15475509 35 7997674394671754023
17134984 74 12895061903859194317
19438510 23 18186520982449383849
20511986 3 18130220592733654688
20715895 44 18411702062670061846
20771845 65 17392750376652523939
21033648 29 17967541197998658291
21095086 4 8935009186806548865
21298829 104 18409730673093323965
22122407 14 18409174281306368505
22950370 63 8430325636048822270
23559900 14 18058470780474811022
270888 7 18409448073061372173
2748736 6 18411131442332740133
2838139 119 18408880711944481407
312425 54 16950282922810821754
3472631 163 18337955589535566647
3610482 184 15984278309880766547
3862424 121 12534774045861365629
4144715 1 18188220908413840170
465052 167 11169910585162462426
5104073 3 17676765465487835410
60123966 16 18059305283729016718
6036956 94 18339090379524532873
636775 8 7925372752936394312
6898599 12 18202279239081203799
7970288 3 9007054656488702149
8863177 126 8718538402934190997
9980921 177 17969773090691480282

> <PUBCHEM_SHAPE_MULTIPOLES>
499.34
20.55
4.28
1.32
27
4.18
-0.35
28.18
0.38
-0.52
0.08
0.45
-0.66
1.91

> <PUBCHEM_SHAPE_SELFOVERLAP>
1047.755

> <PUBCHEM_SHAPE_VOLUME>
282.5

> <PUBCHEM_COORDINATE_TYPE>
2
5
10

$$$$
