184601
  -OEChem-07202400453D

 24 25  0     0  0  0  0  0  0999 V2000
   -4.3466   -2.0134   -1.0048 Cl  0  0  0  0  0  0  0  0  0  0  0  0
   -1.8760   -1.1566    0.4132 S   0  0  0  0  0  0  0  0  0  0  0  0
    2.5184   -2.8740    0.5272 O   0  5  0  0  0  0  0  0  0  0  0  0
    3.4630   -1.3665   -0.7746 O   0  0  0  0  0  0  0  0  0  0  0  0
    0.6955    1.2770    0.5406 N   0  0  0  0  0  0  0  0  0  0  0  0
    2.5058    0.9485   -0.8018 N   0  0  0  0  0  0  0  0  0  0  0  0
    1.6903   -0.8647    0.5014 N   0  0  0  0  0  0  0  0  0  0  0  0
    2.6193   -1.7402    0.0477 N   0  3  0  0  0  0  0  0  0  0  0  0
   -3.6832    0.5028   -0.4008 N   0  0  0  0  0  0  0  0  0  0  0  0
    0.7742    2.5372   -0.1525 C   0  0  0  0  0  0  0  0  0  0  0  0
   -0.4120    0.9772    1.4122 C   0  0  0  0  0  0  0  0  0  0  0  0
    2.0832    2.3722   -0.9296 C   0  0  0  0  0  0  0  0  0  0  0  0
    1.6658    0.4296    0.0671 C   0  0  0  0  0  0  0  0  0  0  0  0
   -1.6491    0.5042    0.6973 C   0  0  0  0  0  0  0  0  0  0  0  0
   -2.6859    1.2377    0.2099 C   0  0  0  0  0  0  0  0  0  0  0  0
   -3.3625   -0.7710   -0.3525 C   0  0  0  0  0  0  0  0  0  0  0  0
    0.8176    3.3893    0.5326 H   0  0  0  0  0  0  0  0  0  0  0  0
   -0.0684    2.6688   -0.8392 H   0  0  0  0  0  0  0  0  0  0  0  0
   -0.6737    1.8874    1.9695 H   0  0  0  0  0  0  0  0  0  0  0  0
   -0.1186    0.2634    2.1916 H   0  0  0  0  0  0  0  0  0  0  0  0
    1.9504    2.6305   -1.9851 H   0  0  0  0  0  0  0  0  0  0  0  0
    2.8677    3.0149   -0.5154 H   0  0  0  0  0  0  0  0  0  0  0  0
    0.9812   -1.1561    1.1670 H   0  0  0  0  0  0  0  0  0  0  0  0
   -2.7829    2.3138    0.2625 H   0  0  0  0  0  0  0  0  0  0  0  0
  1 16  1  0  0  0  0
  2 14  1  0  0  0  0
  2 16  1  0  0  0  0
  3  8  1  0  0  0  0
  4  8  2  0  0  0  0
  5 10  1  0  0  0  0
  5 11  1  0  0  0  0
  5 13  1  0  0  0  0
  6 12  1  0  0  0  0
  6 13  2  0  0  0  0
  7  8  1  0  0  0  0
  7 13  1  0  0  0  0
  7 23  1  0  0  0  0
  9 15  1  0  0  0  0
  9 16  2  0  0  0  0
 10 12  1  0  0  0  0
 10 17  1  0  0  0  0
 10 18  1  0  0  0  0
 11 14  1  0  0  0  0
 11 19  1  0  0  0  0
 11 20  1  0  0  0  0
 12 21  1  0  0  0  0
 12 22  1  0  0  0  0
 14 15  2  0  0  0  0
 15 24  1  0  0  0  0
M  CHG  2   3  -1   8   1
M  END
> <PUBCHEM_COMPOUND_CID>
184601

> <PUBCHEM_CONFORMER_RMSD>
0.6

> <PUBCHEM_CONFORMER_DIVERSEORDER>
1
56
18
66
35
58
74
43
13
34
25
68
70
76
44
63
54
72
45
46
39
81
61
41
60
59
30
55
15
27
78
24
52
71
79
36
37
28
69
80
48
75
51
29
62
11
42
64
47
31
53
12
49
23
40
77
65
67
16
73
6
33
14
5
22
26
50
57
4
10
38
17
3
8
2
19
32
7
9
20
21

> <PUBCHEM_MMFF94_PARTIAL_CHARGES>
18
1 -0.12
10 0.37
11 0.55
12 0.25
13 0.55
14 -0.14
15 0.08
16 0.5
2 -0.08
23 0.4
24 0.15
3 -0.52
4 -0.52
5 -0.79
6 -0.7
7 -0.45
8 1.04
9 -0.57

> <PUBCHEM_EFFECTIVE_ROTOR_COUNT>
4.6

> <PUBCHEM_PHARMACOPHORE_FEATURES>
7
1 3 acceptor
1 4 acceptor
1 7 donor
1 9 acceptor
4 5 6 7 13 cation
5 2 9 14 15 16 rings
5 5 6 10 12 13 rings

> <PUBCHEM_HEAVY_ATOM_COUNT>
16

> <PUBCHEM_ATOM_DEF_STEREO_COUNT>
0

> <PUBCHEM_ATOM_UDEF_STEREO_COUNT>
0

> <PUBCHEM_BOND_DEF_STEREO_COUNT>
0

> <PUBCHEM_BOND_UDEF_STEREO_COUNT>
0

> <PUBCHEM_ISOTOPIC_ATOM_COUNT>
0

> <PUBCHEM_COMPONENT_COUNT>
1

> <PUBCHEM_CACTVS_TAUTO_COUNT>
2

> <PUBCHEM_CONFORMER_ID>
0002D11900000001

> <PUBCHEM_MMFF94_ENERGY>
31.6978

> <PUBCHEM_FEATURE_SELFOVERLAP>
35.6

> <PUBCHEM_SHAPE_FINGERPRINT>
10062212 137 18130783430918004687
10756046 5 18408601483288375037
11806522 49 18343021099443829896
12400797 292 18409730702783028755
12553582 1 18119543050158403282
12616999 72 18118397586690955127
13083527 12 18189596316535524712
13931106 250 17397527724472411418
14250199 8 18261112997706836541
14576447 43 18341612671750009310
16945 1 18265623254301758337
18186145 218 17240478130973886793
20281475 54 18200593734984554059
20291156 8 18342739572432022727
20626108 58 18263341660278900506
20645477 70 18262793098924726171
20671657 53 18337112259125567734
21501502 16 18341336660530861593
21634736 98 18411141337626004342
22802520 49 17968105252054112961
23419403 2 17767644362326303392
235170 7 17533753148247629991
23532345 88 18409724088644091407
23559900 14 18059001762616343728
23598291 2 18341625801744828605
257057 1 18265607680897633184
2748010 2 17185041007671988009
2871803 45 18125160695619451903
3060560 45 17974566098126906980
4175511 335 18264767842760783277
58051976 378 18193558002247178325
6338986 31 18192148201028836770
7364860 26 18341048618174933984
81228 2 17829897529674869680
93112 12 18335139787010641021
9709674 26 18335984284939691635

> <PUBCHEM_SHAPE_MULTIPOLES>
298.35
6.77
2.87
1.03
4.93
0.91
0.05
3.25
-2.52
-2.21
-0.18
0.07
-0.11
-0.98

> <PUBCHEM_SHAPE_SELFOVERLAP>
604.196

> <PUBCHEM_SHAPE_VOLUME>
177.9

> <PUBCHEM_COORDINATE_TYPE>
2
5
10

$$$$
