18752
  -OEChem-07202400563D

 25 25  0     0  0  0  0  0  0999 V2000
    0.6535    1.6301    0.1589 S   0  0  0  0  0  0  0  0  0  0  0  0
    0.4476    2.8323   -0.6255 O   0  0  0  0  0  0  0  0  0  0  0  0
    1.0126    1.7196    1.5611 O   0  0  0  0  0  0  0  0  0  0  0  0
    3.3297   -1.0663   -0.9325 O   0  0  0  0  0  0  0  0  0  0  0  0
    2.3221   -0.8237    1.1171 O   0  0  0  0  0  0  0  0  0  0  0  0
    1.7678    0.6135   -0.6441 N   0  0  0  0  0  0  0  0  0  0  0  0
   -4.2991   -1.6465   -0.1471 N   0  0  0  0  0  0  0  0  0  0  0  0
   -0.8187    0.6562    0.0681 C   0  0  0  0  0  0  0  0  0  0  0  0
   -1.6628    0.8069   -1.0187 C   0  0  0  0  0  0  0  0  0  0  0  0
   -1.1008   -0.2393    1.0854 C   0  0  0  0  0  0  0  0  0  0  0  0
   -3.1248   -0.8686   -0.0743 C   0  0  0  0  0  0  0  0  0  0  0  0
   -2.8248    0.0386   -1.0904 C   0  0  0  0  0  0  0  0  0  0  0  0
   -2.2628   -1.0075    1.0136 C   0  0  0  0  0  0  0  0  0  0  0  0
    2.4740   -0.4751   -0.0474 C   0  0  0  0  0  0  0  0  0  0  0  0
    4.0865   -2.1702   -0.4240 C   0  0  0  0  0  0  0  0  0  0  0  0
   -1.4422    1.5026   -1.8224 H   0  0  0  0  0  0  0  0  0  0  0  0
   -0.4417   -0.3666    1.9384 H   0  0  0  0  0  0  0  0  0  0  0  0
   -3.4877    0.1547   -1.9440 H   0  0  0  0  0  0  0  0  0  0  0  0
   -2.4850   -1.7121    1.8109 H   0  0  0  0  0  0  0  0  0  0  0  0
    1.9921    0.8440   -1.6205 H   0  0  0  0  0  0  0  0  0  0  0  0
   -4.9254   -1.5451   -0.9347 H   0  0  0  0  0  0  0  0  0  0  0  0
   -4.5178   -2.3032    0.5903 H   0  0  0  0  0  0  0  0  0  0  0  0
    3.4159   -2.9733   -0.1038 H   0  0  0  0  0  0  0  0  0  0  0  0
    4.7229   -1.8435    0.4039 H   0  0  0  0  0  0  0  0  0  0  0  0
    4.7235   -2.5451   -1.2294 H   0  0  0  0  0  0  0  0  0  0  0  0
  1  2  2  0  0  0  0
  1  3  2  0  0  0  0
  1  6  1  0  0  0  0
  1  8  1  0  0  0  0
  4 14  1  0  0  0  0
  4 15  1  0  0  0  0
  5 14  2  0  0  0  0
  6 14  1  0  0  0  0
  6 20  1  0  0  0  0
  7 11  1  0  0  0  0
  7 21  1  0  0  0  0
  7 22  1  0  0  0  0
  8  9  2  0  0  0  0
  8 10  1  0  0  0  0
  9 12  1  0  0  0  0
  9 16  1  0  0  0  0
 10 13  2  0  0  0  0
 10 17  1  0  0  0  0
 11 12  2  0  0  0  0
 11 13  1  0  0  0  0
 12 18  1  0  0  0  0
 13 19  1  0  0  0  0
 15 23  1  0  0  0  0
 15 24  1  0  0  0  0
 15 25  1  0  0  0  0
M  END
> <PUBCHEM_COMPOUND_CID>
18752

> <PUBCHEM_CONFORMER_RMSD>
0.6

> <PUBCHEM_CONFORMER_DIVERSEORDER>
1
6
10
7
11
2
8
12
9
4
13
5
3

> <PUBCHEM_MMFF94_PARTIAL_CHARGES>
22
1 1.45
10 -0.15
11 0.1
12 -0.15
13 -0.15
14 0.96
15 0.28
16 0.15
17 0.15
18 0.15
19 0.15
2 -0.65
20 0.42
21 0.4
22 0.4
3 -0.65
4 -0.43
5 -0.57
6 -0.79
7 -0.9
8 -0.01
9 -0.15

> <PUBCHEM_EFFECTIVE_ROTOR_COUNT>
4

> <PUBCHEM_PHARMACOPHORE_FEATURES>
7
1 2 acceptor
1 3 acceptor
1 5 acceptor
1 6 donor
1 7 cation
1 7 donor
6 8 9 10 11 12 13 rings

> <PUBCHEM_HEAVY_ATOM_COUNT>
15

> <PUBCHEM_ATOM_DEF_STEREO_COUNT>
0

> <PUBCHEM_ATOM_UDEF_STEREO_COUNT>
0

> <PUBCHEM_BOND_DEF_STEREO_COUNT>
0

> <PUBCHEM_BOND_UDEF_STEREO_COUNT>
0

> <PUBCHEM_ISOTOPIC_ATOM_COUNT>
0

> <PUBCHEM_COMPONENT_COUNT>
1

> <PUBCHEM_CACTVS_TAUTO_COUNT>
2

> <PUBCHEM_CONFORMER_ID>
0000494000000001

> <PUBCHEM_MMFF94_ENERGY>
27.3542

> <PUBCHEM_FEATURE_SELFOVERLAP>
35.54

> <PUBCHEM_SHAPE_FINGERPRINT>
10465860 71 17967250879705085446
11127187 94 18114745932244276663
122479 349 8862360025885280638
12251169 10 13758353366854678850
12363563 72 18411140203844393558
13296908 3 18412259519544875998
14817 1 9797681659394617712
16945 1 16877666763859651105
18186145 218 18187352264821670605
19765921 60 11097855228496449765
19766037 51 18261123983848252734
20361792 2 18343585131259608964
20645477 70 18264764549037916239
20671657 53 18408328769855005244
20711985 344 18120932806991214704
20871998 22 18412541024554969032
20871999 31 18041280971854551997
21061003 4 18272653424317500567
21296965 67 18412544301403889356
22802520 49 17822576135090453137
23403322 49 18336828568083389158
23526113 38 18114184180607719568
23557571 272 18188197754566569112
23559900 14 18192417590479259938
27216 239 10014992358543801646
7364860 26 18193838377670537292
81228 2 18123184606873660224
90316 7 14549017658946226691

> <PUBCHEM_SHAPE_MULTIPOLES>
279.1
6.47
2.24
1.21
1.4
0.83
0.21
-5.89
-1.44
1.04
-0.11
-0.07
0.13
0.63

> <PUBCHEM_SHAPE_SELFOVERLAP>
561.535

> <PUBCHEM_SHAPE_VOLUME>
164

> <PUBCHEM_COORDINATE_TYPE>
2
5
10

$$$$
