19395
  -OEChem-07202400143D

 37 36  0     0  0  0  0  0  0999 V2000
    1.5267   -2.5054   -2.1322 S   0  0  0  0  0  0  0  0  0  0  0  0
   -1.5271    2.5058   -2.1317 S   0  0  0  0  0  0  0  0  0  0  0  0
    0.8845   -1.2039   -0.8381 P   0  0  0  0  0  0  0  0  0  0  0  0
   -0.8847    1.2042   -0.8379 P   0  0  0  0  0  0  0  0  0  0  0  0
   -0.0002    0.0002   -1.4685 O   0  0  0  0  0  0  0  0  0  0  0  0
    2.0005   -0.4022    0.0291 O   0  0  0  0  0  0  0  0  0  0  0  0
   -0.1065   -1.7653    0.3207 O   0  0  0  0  0  0  0  0  0  0  0  0
   -2.0004    0.4021    0.0293 O   0  0  0  0  0  0  0  0  0  0  0  0
    0.1066    1.7653    0.3207 O   0  0  0  0  0  0  0  0  0  0  0  0
    3.0709    0.2502   -0.6331 C   0  0  0  0  0  0  0  0  0  0  0  0
    0.3994   -2.6317    1.3216 C   0  0  0  0  0  0  0  0  0  0  0  0
   -3.0708   -0.2501   -0.6330 C   0  0  0  0  0  0  0  0  0  0  0  0
   -0.3993    2.6314    1.3218 C   0  0  0  0  0  0  0  0  0  0  0  0
    3.9578    0.9140    0.3986 C   0  0  0  0  0  0  0  0  0  0  0  0
   -0.7235   -3.0017    2.2670 C   0  0  0  0  0  0  0  0  0  0  0  0
   -3.9575   -0.9143    0.3987 C   0  0  0  0  0  0  0  0  0  0  0  0
    0.7237    3.0015    2.2672 C   0  0  0  0  0  0  0  0  0  0  0  0
    3.6558   -0.4792   -1.2004 H   0  0  0  0  0  0  0  0  0  0  0  0
    2.6668    0.9966   -1.3240 H   0  0  0  0  0  0  0  0  0  0  0  0
    0.8075   -3.5329    0.8549 H   0  0  0  0  0  0  0  0  0  0  0  0
    1.1990   -2.1254    1.8709 H   0  0  0  0  0  0  0  0  0  0  0  0
   -3.6559    0.4794   -1.1999 H   0  0  0  0  0  0  0  0  0  0  0  0
   -2.6668   -0.9964   -1.3242 H   0  0  0  0  0  0  0  0  0  0  0  0
   -0.8076    3.5326    0.8553 H   0  0  0  0  0  0  0  0  0  0  0  0
   -1.1987    2.1250    1.8711 H   0  0  0  0  0  0  0  0  0  0  0  0
    3.3878    1.6407    0.9864 H   0  0  0  0  0  0  0  0  0  0  0  0
    4.3507    0.1735    1.1031 H   0  0  0  0  0  0  0  0  0  0  0  0
    4.7967    1.4274   -0.0792 H   0  0  0  0  0  0  0  0  0  0  0  0
   -1.1528   -2.1045    2.7253 H   0  0  0  0  0  0  0  0  0  0  0  0
   -1.5338   -3.5011    1.7257 H   0  0  0  0  0  0  0  0  0  0  0  0
   -0.3657   -3.6662    3.0582 H   0  0  0  0  0  0  0  0  0  0  0  0
   -3.3874   -1.6411    0.9861 H   0  0  0  0  0  0  0  0  0  0  0  0
   -4.3504   -0.1741    1.1034 H   0  0  0  0  0  0  0  0  0  0  0  0
   -4.7964   -1.4276   -0.0792 H   0  0  0  0  0  0  0  0  0  0  0  0
    1.1532    2.1042    2.7251 H   0  0  0  0  0  0  0  0  0  0  0  0
    1.5338    3.5011    1.7258 H   0  0  0  0  0  0  0  0  0  0  0  0
    0.3658    3.6658    3.0586 H   0  0  0  0  0  0  0  0  0  0  0  0
  1  3  2  0  0  0  0
  2  4  2  0  0  0  0
  3  5  1  0  0  0  0
  3  6  1  0  0  0  0
  3  7  1  0  0  0  0
  4  5  1  0  0  0  0
  4  8  1  0  0  0  0
  4  9  1  0  0  0  0
  6 10  1  0  0  0  0
  7 11  1  0  0  0  0
  8 12  1  0  0  0  0
  9 13  1  0  0  0  0
 10 14  1  0  0  0  0
 10 18  1  0  0  0  0
 10 19  1  0  0  0  0
 11 15  1  0  0  0  0
 11 20  1  0  0  0  0
 11 21  1  0  0  0  0
 12 16  1  0  0  0  0
 12 22  1  0  0  0  0
 12 23  1  0  0  0  0
 13 17  1  0  0  0  0
 13 24  1  0  0  0  0
 13 25  1  0  0  0  0
 14 26  1  0  0  0  0
 14 27  1  0  0  0  0
 14 28  1  0  0  0  0
 15 29  1  0  0  0  0
 15 30  1  0  0  0  0
 15 31  1  0  0  0  0
 16 32  1  0  0  0  0
 16 33  1  0  0  0  0
 16 34  1  0  0  0  0
 17 35  1  0  0  0  0
 17 36  1  0  0  0  0
 17 37  1  0  0  0  0
M  END
> <PUBCHEM_COMPOUND_CID>
19395

> <PUBCHEM_CONFORMER_RMSD>
0.8

> <PUBCHEM_CONFORMER_DIVERSEORDER>
1
90
35
43
113
108
79
2
86
9
56
32
29
112
117
75
136
121
71
116
15
33
133
69
6
129
98
128
26
122
42
101
27
92
65
76
13
77
141
126
78
54
84
140
104
55
53
37
134
17
111
10
115
139
18
64
87
135
41
102
11
138
120
70
118
62
99
19
34
97
57
88
22
85
110
96
106
30
28
51
21
44
25
63
130
49
40
3
61
38
14
36
58
143
132
60
89
24
66
95
45
74
105
119
23
46
4
31
131
81
127
91
59
12
142
7
109
68
72
94
125
50
16
52
20
82
80
8
83
39
124
137
47
107
73
103
123
100
67
93
114
48
5

> <PUBCHEM_MMFF94_PARTIAL_CHARGES>
13
1 -0.68
10 0.28
11 0.28
12 0.28
13 0.28
2 -0.68
3 1.49
4 1.49
5 -0.54
6 -0.55
7 -0.55
8 -0.55
9 -0.55

> <PUBCHEM_EFFECTIVE_ROTOR_COUNT>
10

> <PUBCHEM_PHARMACOPHORE_FEATURES>
0

> <PUBCHEM_HEAVY_ATOM_COUNT>
17

> <PUBCHEM_ATOM_DEF_STEREO_COUNT>
0

> <PUBCHEM_ATOM_UDEF_STEREO_COUNT>
0

> <PUBCHEM_BOND_DEF_STEREO_COUNT>
0

> <PUBCHEM_BOND_UDEF_STEREO_COUNT>
0

> <PUBCHEM_ISOTOPIC_ATOM_COUNT>
0

> <PUBCHEM_COMPONENT_COUNT>
1

> <PUBCHEM_CACTVS_TAUTO_COUNT>
1

> <PUBCHEM_CONFORMER_ID>
00004BC300000001

> <PUBCHEM_MMFF94_ENERGY>
-0.3316

> <PUBCHEM_FEATURE_SELFOVERLAP>
0

> <PUBCHEM_SHAPE_FINGERPRINT>
108231 29 18412829117865162889
11132069 177 18341327889690730838
14787075 74 18339078305979858916
16945 1 18130787901593623797
20511035 2 17689445201040477927
20600515 1 18044123303843571822
22344851 341 18190175676883724567
23419403 2 17907308989045897619
23558518 356 18125460621992073688
568465 68 18117020916623657443
81228 2 18046944564807758870

> <PUBCHEM_SHAPE_MULTIPOLES>
335.9
4.59
4.07
2.39
0
0
-0.26
0
0.99
0
-2.37
0
0
1.37

> <PUBCHEM_SHAPE_SELFOVERLAP>
570.835

> <PUBCHEM_SHAPE_VOLUME>
227.9

> <PUBCHEM_COORDINATE_TYPE>
2
5
10

$$$$
