19427
  -OEChem-07202400143D

 33 36  0     0  0  0  0  0  0999 V2000
   -0.4129    0.3923    0.0002 C   0  0  0  0  0  0  0  0  0  0  0  0
    0.4728   -0.7249    0.0001 C   0  0  0  0  0  0  0  0  0  0  0  0
    1.9047   -0.5301    0.0001 C   0  0  0  0  0  0  0  0  0  0  0  0
   -1.8448    0.1975    0.0003 C   0  0  0  0  0  0  0  0  0  0  0  0
    0.1718    1.6749    0.0003 C   0  0  0  0  0  0  0  0  0  0  0  0
    2.4240    0.7865   -0.0002 C   0  0  0  0  0  0  0  0  0  0  0  0
   -2.3643   -1.1191   -0.0003 C   0  0  0  0  0  0  0  0  0  0  0  0
    1.5513    1.8695   -0.0001 C   0  0  0  0  0  0  0  0  0  0  0  0
   -0.1120   -2.0076   -0.0001 C   0  0  0  0  0  0  0  0  0  0  0  0
   -1.4915   -2.2022   -0.0005 C   0  0  0  0  0  0  0  0  0  0  0  0
    2.8615   -1.5795    0.0003 C   0  0  0  0  0  0  0  0  0  0  0  0
   -2.8017    1.2470    0.0008 C   0  0  0  0  0  0  0  0  0  0  0  0
   -0.5381    2.9932   -0.0009 C   0  0  0  0  0  0  0  0  0  0  0  0
    3.8109    1.0187   -0.0002 C   0  0  0  0  0  0  0  0  0  0  0  0
   -3.7511   -1.3512   -0.0005 C   0  0  0  0  0  0  0  0  0  0  0  0
    4.2391   -1.3394    0.0002 C   0  0  0  0  0  0  0  0  0  0  0  0
   -4.1792    1.0069    0.0005 C   0  0  0  0  0  0  0  0  0  0  0  0
    4.7142   -0.0383   -0.0001 C   0  0  0  0  0  0  0  0  0  0  0  0
   -4.6545   -0.2942   -0.0001 C   0  0  0  0  0  0  0  0  0  0  0  0
    1.9743    2.8735   -0.0003 H   0  0  0  0  0  0  0  0  0  0  0  0
    0.4971   -2.9078   -0.0002 H   0  0  0  0  0  0  0  0  0  0  0  0
   -1.8698   -3.2229   -0.0008 H   0  0  0  0  0  0  0  0  0  0  0  0
    2.5541   -2.6220    0.0006 H   0  0  0  0  0  0  0  0  0  0  0  0
   -2.6072    2.2995    0.0021 H   0  0  0  0  0  0  0  0  0  0  0  0
    0.1535    3.8471   -0.0026 H   0  0  0  0  0  0  0  0  0  0  0  0
   -1.1122    3.1328   -0.9227 H   0  0  0  0  0  0  0  0  0  0  0  0
   -1.1108    3.1351    0.9213 H   0  0  0  0  0  0  0  0  0  0  0  0
    4.2030    2.0343   -0.0003 H   0  0  0  0  0  0  0  0  0  0  0  0
   -4.1421   -2.3672   -0.0009 H   0  0  0  0  0  0  0  0  0  0  0  0
    4.9343   -2.1739    0.0003 H   0  0  0  0  0  0  0  0  0  0  0  0
   -4.8771    1.8395    0.0010 H   0  0  0  0  0  0  0  0  0  0  0  0
    5.7824    0.1553   -0.0001 H   0  0  0  0  0  0  0  0  0  0  0  0
   -5.7226   -0.4878   -0.0002 H   0  0  0  0  0  0  0  0  0  0  0  0
  1  2  2  0  0  0  0
  1  4  1  0  0  0  0
  1  5  1  0  0  0  0
  2  3  1  0  0  0  0
  2  9  1  0  0  0  0
  3  6  1  0  0  0  0
  3 11  2  0  0  0  0
  4  7  1  0  0  0  0
  4 12  2  0  0  0  0
  5  8  2  0  0  0  0
  5 13  1  0  0  0  0
  6  8  1  0  0  0  0
  6 14  2  0  0  0  0
  7 10  1  0  0  0  0
  7 15  2  0  0  0  0
  8 20  1  0  0  0  0
  9 10  2  0  0  0  0
  9 21  1  0  0  0  0
 10 22  1  0  0  0  0
 11 16  1  0  0  0  0
 11 23  1  0  0  0  0
 12 17  1  0  0  0  0
 12 24  1  0  0  0  0
 13 25  1  0  0  0  0
 13 26  1  0  0  0  0
 13 27  1  0  0  0  0
 14 18  1  0  0  0  0
 14 28  1  0  0  0  0
 15 19  1  0  0  0  0
 15 29  1  0  0  0  0
 16 18  2  0  0  0  0
 16 30  1  0  0  0  0
 17 19  2  0  0  0  0
 17 31  1  0  0  0  0
 18 32  1  0  0  0  0
 19 33  1  0  0  0  0
M  END
> <PUBCHEM_COMPOUND_CID>
19427

> <PUBCHEM_CONFORMER_RMSD>
0.4

> <PUBCHEM_CONFORMER_DIVERSEORDER>
1

> <PUBCHEM_MMFF94_PARTIAL_CHARGES>
24
10 -0.15
11 -0.15
12 -0.15
13 0.14
14 -0.15
15 -0.15
16 -0.15
17 -0.15
18 -0.15
19 -0.15
20 0.15
21 0.15
22 0.15
23 0.15
24 0.15
28 0.15
29 0.15
30 0.15
31 0.15
32 0.15
33 0.15
5 -0.14
8 -0.15
9 -0.15

> <PUBCHEM_EFFECTIVE_ROTOR_COUNT>
0

> <PUBCHEM_PHARMACOPHORE_FEATURES>
4
6 1 2 3 5 6 8 rings
6 1 2 4 7 9 10 rings
6 3 6 11 14 16 18 rings
6 4 7 12 15 17 19 rings

> <PUBCHEM_HEAVY_ATOM_COUNT>
19

> <PUBCHEM_ATOM_DEF_STEREO_COUNT>
0

> <PUBCHEM_ATOM_UDEF_STEREO_COUNT>
0

> <PUBCHEM_BOND_DEF_STEREO_COUNT>
0

> <PUBCHEM_BOND_UDEF_STEREO_COUNT>
0

> <PUBCHEM_ISOTOPIC_ATOM_COUNT>
0

> <PUBCHEM_COMPONENT_COUNT>
1

> <PUBCHEM_CACTVS_TAUTO_COUNT>
1

> <PUBCHEM_CONFORMER_ID>
00004BE300000001

> <PUBCHEM_MMFF94_ENERGY>
86.166

> <PUBCHEM_FEATURE_SELFOVERLAP>
20.367

> <PUBCHEM_SHAPE_FINGERPRINT>
10062212 137 18342733035750215695
10616163 171 18267870656074304542
10967382 1 18410573998046915526
11132069 177 18412541003058786792
11471102 20 18410570699543719822
11578080 2 17058064848010000345
11680986 33 18194400228296421217
116883 192 18270125604436160246
12011746 2 18411418401512754391
12403259 226 18266173010679882093
12403814 3 17530962479828817061
12553582 1 18410564098537668874
13132413 78 18411982485490762877
13140716 1 18410857667751927803
13583140 156 14404896930177669286
138480 1 15024149218972331553
13862211 1 18410568479030173671
14115302 16 18114191855930503422
14178342 30 17765415931444954154
14790565 3 18267313031986221489
15099037 51 18409445886638181991
15196674 1 18410573989451706183
15442244 35 18411418427261452304
15536298 74 18342457062547152050
16945 1 17978511158774063939
17804303 29 18412266159411536125
1813 80 17385723599654604532
18186145 218 17894623760103183007
19141452 34 18272932747658261279
19591789 44 18410009905674690331
200 152 17988638614760038375
20028762 73 18129942411892547655
20510252 161 18271242699386109840
21029758 11 18341608235360152065
21029758 27 18261118499491448965
21267235 1 18410583889378074002
21279426 13 18194401095695140439
21421861 104 17898288294956641386
221490 88 18191311687254533651
2334 1 18338799021452280231
23366157 5 17825945098758291284
23402539 116 18271799120851863759
23463225 33 18409730672649523404
23559900 14 18342454876910413104
2748010 2 18411417344950792783
3004659 81 18260551091968824286
335352 9 18338797801681555613
34934 24 18339355370542237962
350125 39 18410296930556223489
4214541 1 18410573976783127585
474 4 17169277133893345268
5104073 3 18410574006631589330
537710 114 18410016545952534444
69090 78 18413668023873323103
7364860 26 18125158487790431992
7832392 63 18268707380064504742
8809292 202 18334016115891326667
9709674 26 18412269470810703206
9981440 41 17183621533739728057

> <PUBCHEM_SHAPE_MULTIPOLES>
391.01
8.4
2.55
0.62
0.69
0.69
0
-1.24
0
-0.24
0
0
0
0

> <PUBCHEM_SHAPE_SELFOVERLAP>
895.981

> <PUBCHEM_SHAPE_VOLUME>
186

> <PUBCHEM_COORDINATE_TYPE>
2
5
10

$$$$
