197225
  -OEChem-07202400443D

 27 28  0     0  0  0  0  0  0999 V2000
    5.6834    0.9690   -0.1023 Cl  0  0  0  0  0  0  0  0  0  0  0  0
   -3.9825   -1.0201   -0.3949 O   0  0  0  0  0  0  0  0  0  0  0  0
   -3.3263    1.9368    1.3132 O   0  0  0  0  0  0  0  0  0  0  0  0
   -3.2823    2.3422   -0.9371 O   0  0  0  0  0  0  0  0  0  0  0  0
   -0.0853   -0.4854    0.0580 N   0  0  0  0  0  0  0  0  0  0  0  0
   -0.9046    0.6191    0.0987 N   0  0  0  0  0  0  0  0  0  0  0  0
   -0.5756   -1.7997    0.0460 C   0  0  0  0  0  0  0  0  0  0  0  0
    1.2998   -0.1358    0.0195 C   0  0  0  0  0  0  0  0  0  0  0  0
   -1.8861   -2.0663   -0.0701 C   0  0  0  0  0  0  0  0  0  0  0  0
    0.3560   -2.9672    0.2645 C   0  0  0  0  0  0  0  0  0  0  0  0
    1.9469    0.0637   -1.2066 C   0  0  0  0  0  0  0  0  0  0  0  0
    2.0273    0.0115    1.2075 C   0  0  0  0  0  0  0  0  0  0  0  0
   -2.1832    0.4467   -0.0156 C   0  0  0  0  0  0  0  0  0  0  0  0
   -2.7852   -0.9155   -0.1868 C   0  0  0  0  0  0  0  0  0  0  0  0
    3.2990    0.4048   -1.2442 C   0  0  0  0  0  0  0  0  0  0  0  0
    3.3793    0.3527    1.1699 C   0  0  0  0  0  0  0  0  0  0  0  0
    4.0152    0.5493   -0.0558 C   0  0  0  0  0  0  0  0  0  0  0  0
   -2.9961    1.6941    0.0361 C   0  0  0  0  0  0  0  0  0  0  0  0
   -2.3058   -3.0640   -0.0707 H   0  0  0  0  0  0  0  0  0  0  0  0
    0.8788   -2.8666    1.2214 H   0  0  0  0  0  0  0  0  0  0  0  0
    1.0991   -3.0181   -0.5382 H   0  0  0  0  0  0  0  0  0  0  0  0
   -0.1714   -3.9274    0.2810 H   0  0  0  0  0  0  0  0  0  0  0  0
    1.3999   -0.0462   -2.1399 H   0  0  0  0  0  0  0  0  0  0  0  0
    1.5433   -0.1390    2.1694 H   0  0  0  0  0  0  0  0  0  0  0  0
    3.7815    0.5548   -2.2066 H   0  0  0  0  0  0  0  0  0  0  0  0
    3.9247    0.4617    2.1038 H   0  0  0  0  0  0  0  0  0  0  0  0
   -3.8652    2.7508    1.4091 H   0  0  0  0  0  0  0  0  0  0  0  0
  1 17  1  0  0  0  0
  2 14  2  0  0  0  0
  3 18  1  0  0  0  0
  3 27  1  0  0  0  0
  4 18  2  0  0  0  0
  5  6  1  0  0  0  0
  5  7  1  0  0  0  0
  5  8  1  0  0  0  0
  6 13  2  0  0  0  0
  7  9  2  0  0  0  0
  7 10  1  0  0  0  0
  8 11  2  0  0  0  0
  8 12  1  0  0  0  0
  9 14  1  0  0  0  0
  9 19  1  0  0  0  0
 10 20  1  0  0  0  0
 10 21  1  0  0  0  0
 10 22  1  0  0  0  0
 11 15  1  0  0  0  0
 11 23  1  0  0  0  0
 12 16  2  0  0  0  0
 12 24  1  0  0  0  0
 13 14  1  0  0  0  0
 13 18  1  0  0  0  0
 15 17  2  0  0  0  0
 15 25  1  0  0  0  0
 16 17  1  0  0  0  0
 16 26  1  0  0  0  0
M  END
> <PUBCHEM_COMPOUND_CID>
197225

> <PUBCHEM_CONFORMER_RMSD>
0.6

> <PUBCHEM_CONFORMER_DIVERSEORDER>
1
3
2

> <PUBCHEM_MMFF94_PARTIAL_CHARGES>
24
1 -0.18
10 0.14
11 -0.15
12 -0.15
13 0.45
14 0.56
15 -0.15
16 -0.15
17 0.18
18 0.72
19 0.15
2 -0.57
23 0.15
24 0.15
25 0.15
26 0.15
27 0.5
3 -0.65
4 -0.57
5 -0.16
6 -0.49
7 -0.04
8 0.1
9 -0.14

> <PUBCHEM_EFFECTIVE_ROTOR_COUNT>
2

> <PUBCHEM_PHARMACOPHORE_FEATURES>
7
1 2 acceptor
1 3 acceptor
1 4 acceptor
1 6 acceptor
3 3 4 18 anion
6 5 6 7 9 13 14 rings
6 8 11 12 15 16 17 rings

> <PUBCHEM_HEAVY_ATOM_COUNT>
18

> <PUBCHEM_ATOM_DEF_STEREO_COUNT>
0

> <PUBCHEM_ATOM_UDEF_STEREO_COUNT>
0

> <PUBCHEM_BOND_DEF_STEREO_COUNT>
0

> <PUBCHEM_BOND_UDEF_STEREO_COUNT>
0

> <PUBCHEM_ISOTOPIC_ATOM_COUNT>
0

> <PUBCHEM_COMPONENT_COUNT>
1

> <PUBCHEM_CACTVS_TAUTO_COUNT>
3

> <PUBCHEM_CONFORMER_ID>
0003026900000001

> <PUBCHEM_MMFF94_ENERGY>
56.594

> <PUBCHEM_FEATURE_SELFOVERLAP>
35.578

> <PUBCHEM_SHAPE_FINGERPRINT>
10382601 240 17823136718548718538
10498660 4 18410852123081614853
10646746 165 18342455967594385112
11725454 13 16770092728410485274
12173636 292 18337103579070554814
12236239 1 17676762167205723618
12390115 104 18200609016066827881
12500047 106 18413105083089896654
12916748 109 18335709381236362102
13140716 1 18050291663456145059
13380535 21 18268999687376003859
13464514 151 17845100562624380248
13538477 17 17897159328617338954
13965767 371 17897724262803693524
14614273 12 18261666000716428255
15042514 8 18121223335759530867
16752209 62 18337943588610990267
16945 1 18338797918094474311
1741750 31 18341334409387671945
18186145 218 18201728301475854604
200 152 16009021838877793811
20510252 161 18342740753700613987
20645477 56 18341337755204300592
20671657 1 18051417258103726699
21501502 16 18267580217822645851
21524375 3 18335420157890892035
23366157 5 17970347009965760946
23402539 116 18340761666909186391
23526113 38 17703240584872710830
23557571 272 18202008763156982856
23559900 14 18202007586894924886
25 1 17988086582207301592
25147074 1 18268697326126573379
2748010 2 18266467499307467887
305870 269 18335699377930722507
3268164 11 18272642480909583949
5104073 3 18409165498530882034
7364860 26 18054505798861180439
77492 1 17676482886915103202
81228 2 18195810893209695987

> <PUBCHEM_SHAPE_MULTIPOLES>
344.73
8.69
2.35
1.07
6.84
0.8
-0.05
-4.41
0.36
-2.74
-0.09
0.51
-0.27
-0.27

> <PUBCHEM_SHAPE_SELFOVERLAP>
729.673

> <PUBCHEM_SHAPE_VOLUME>
193.9

> <PUBCHEM_COORDINATE_TYPE>
2
5
10

$$$$
