20568
  -OEChem-07202400143D

 41 40  0     0  0  0  0  0  0999 V2000
    7.9222    1.1695   -0.3463 Cl  0  0  0  0  0  0  0  0  0  0  0  0
    6.6336   -0.9539    1.7890 Cl  0  0  0  0  0  0  0  0  0  0  0  0
    6.5217   -1.5891   -1.4224 Cl  0  0  0  0  0  0  0  0  0  0  0  0
    6.3897   -0.1172   -0.0385 Si  0  0  0  0  0  0  0  0  0  0  0  0
   -1.6467   -0.2486    0.0909 C   0  0  0  0  0  0  0  0  0  0  0  0
   -0.4136    0.6582    0.0565 C   0  0  0  0  0  0  0  0  0  0  0  0
   -2.9701    0.5209    0.0444 C   0  0  0  0  0  0  0  0  0  0  0  0
    0.8768   -0.1651    0.0776 C   0  0  0  0  0  0  0  0  0  0  0  0
   -4.2029   -0.3838    0.1039 C   0  0  0  0  0  0  0  0  0  0  0  0
    2.1454    0.6845   -0.0485 C   0  0  0  0  0  0  0  0  0  0  0  0
   -5.4933    0.4297   -0.0192 C   0  0  0  0  0  0  0  0  0  0  0  0
    3.4766   -0.0734    0.0543 C   0  0  0  0  0  0  0  0  0  0  0  0
   -6.7261   -0.4756    0.0018 C   0  0  0  0  0  0  0  0  0  0  0  0
    4.7454    0.7633   -0.1553 C   0  0  0  0  0  0  0  0  0  0  0  0
   -8.0160    0.3395   -0.0875 C   0  0  0  0  0  0  0  0  0  0  0  0
   -9.2426   -0.5588   -0.1006 C   0  0  0  0  0  0  0  0  0  0  0  0
   -1.6098   -0.9438   -0.7571 H   0  0  0  0  0  0  0  0  0  0  0  0
   -1.6196   -0.8592    1.0020 H   0  0  0  0  0  0  0  0  0  0  0  0
   -0.4305    1.3407    0.9144 H   0  0  0  0  0  0  0  0  0  0  0  0
   -0.4401    1.2751   -0.8497 H   0  0  0  0  0  0  0  0  0  0  0  0
   -3.0009    1.1161   -0.8768 H   0  0  0  0  0  0  0  0  0  0  0  0
   -3.0033    1.2305    0.8804 H   0  0  0  0  0  0  0  0  0  0  0  0
    0.9221   -0.7389    1.0115 H   0  0  0  0  0  0  0  0  0  0  0  0
    0.8602   -0.8949   -0.7412 H   0  0  0  0  0  0  0  0  0  0  0  0
   -4.2036   -0.9422    1.0476 H   0  0  0  0  0  0  0  0  0  0  0  0
   -4.1544   -1.1196   -0.7079 H   0  0  0  0  0  0  0  0  0  0  0  0
    2.1307    1.4595    0.7283 H   0  0  0  0  0  0  0  0  0  0  0  0
    2.1172    1.2117   -1.0105 H   0  0  0  0  0  0  0  0  0  0  0  0
   -5.4789    1.0056   -0.9526 H   0  0  0  0  0  0  0  0  0  0  0  0
   -5.5510    1.1510    0.8051 H   0  0  0  0  0  0  0  0  0  0  0  0
    3.4602   -0.8884   -0.6814 H   0  0  0  0  0  0  0  0  0  0  0  0
    3.5180   -0.5570    1.0391 H   0  0  0  0  0  0  0  0  0  0  0  0
   -6.7315   -1.0698    0.9238 H   0  0  0  0  0  0  0  0  0  0  0  0
   -6.6768   -1.1810   -0.8367 H   0  0  0  0  0  0  0  0  0  0  0  0
    4.7440    1.5798    0.5772 H   0  0  0  0  0  0  0  0  0  0  0  0
    4.6849    1.2403   -1.1413 H   0  0  0  0  0  0  0  0  0  0  0  0
   -8.0816    1.0274    0.7633 H   0  0  0  0  0  0  0  0  0  0  0  0
   -8.0089    0.9495   -0.9984 H   0  0  0  0  0  0  0  0  0  0  0  0
   -9.2237   -1.2364   -0.9602 H   0  0  0  0  0  0  0  0  0  0  0  0
  -10.1535    0.0445   -0.1638 H   0  0  0  0  0  0  0  0  0  0  0  0
   -9.2970   -1.1617    0.8115 H   0  0  0  0  0  0  0  0  0  0  0  0
  1  4  1  0  0  0  0
  2  4  1  0  0  0  0
  3  4  1  0  0  0  0
  4 14  1  0  0  0  0
  5  6  1  0  0  0  0
  5  7  1  0  0  0  0
  5 17  1  0  0  0  0
  5 18  1  0  0  0  0
  6  8  1  0  0  0  0
  6 19  1  0  0  0  0
  6 20  1  0  0  0  0
  7  9  1  0  0  0  0
  7 21  1  0  0  0  0
  7 22  1  0  0  0  0
  8 10  1  0  0  0  0
  8 23  1  0  0  0  0
  8 24  1  0  0  0  0
  9 11  1  0  0  0  0
  9 25  1  0  0  0  0
  9 26  1  0  0  0  0
 10 12  1  0  0  0  0
 10 27  1  0  0  0  0
 10 28  1  0  0  0  0
 11 13  1  0  0  0  0
 11 29  1  0  0  0  0
 11 30  1  0  0  0  0
 12 14  1  0  0  0  0
 12 31  1  0  0  0  0
 12 32  1  0  0  0  0
 13 15  1  0  0  0  0
 13 33  1  0  0  0  0
 13 34  1  0  0  0  0
 14 35  1  0  0  0  0
 14 36  1  0  0  0  0
 15 16  1  0  0  0  0
 15 37  1  0  0  0  0
 15 38  1  0  0  0  0
 16 39  1  0  0  0  0
 16 40  1  0  0  0  0
 16 41  1  0  0  0  0
M  END
> <PUBCHEM_COMPOUND_CID>
20568

> <PUBCHEM_CONFORMER_RMSD>
1.4

> <PUBCHEM_CONFORMER_DIVERSEORDER>
1
28
17
16
15
23
8
26
4
21
22
19
25
20
2
6
27
13
14
5
11
24
10
3
9
18
12
7

> <PUBCHEM_MMFF94_PARTIAL_CHARGES>
5
1 -0.37
14 -0.08
2 -0.37
3 -0.37
4 1.19

> <PUBCHEM_EFFECTIVE_ROTOR_COUNT>
11

> <PUBCHEM_PHARMACOPHORE_FEATURES>
1
1 16 hydrophobe

> <PUBCHEM_HEAVY_ATOM_COUNT>
16

> <PUBCHEM_ATOM_DEF_STEREO_COUNT>
0

> <PUBCHEM_ATOM_UDEF_STEREO_COUNT>
0

> <PUBCHEM_BOND_DEF_STEREO_COUNT>
0

> <PUBCHEM_BOND_UDEF_STEREO_COUNT>
0

> <PUBCHEM_ISOTOPIC_ATOM_COUNT>
0

> <PUBCHEM_COMPONENT_COUNT>
1

> <PUBCHEM_CACTVS_TAUTO_COUNT>
1

> <PUBCHEM_CONFORMER_ID>
0000505800000001

> <PUBCHEM_MMFF94_ENERGY>
-0.7861

> <PUBCHEM_FEATURE_SELFOVERLAP>
5.074

> <PUBCHEM_SHAPE_FINGERPRINT>
10066227 49 18059580126638477399
11315181 36 18413112779908668345
11638347 137 16200155374357912854
13533116 47 17822003182812158858
13885169 127 18201441346738254217
14123256 10 17167860867905067469
14251764 18 17821729412337013017
14251764 46 18409730668333450557
16120349 18 18113617936831665924
18006028 8 18059856168887428177
20281389 69 17240761774730000444
20621476 8 17603863395454362279
21150785 3 15357697491928791639
21315763 28 18059857268736568593
22224240 67 15339116849263071517
23035841 295 18334574646660828555
232437 2 18409448107932975771
23521765 1 18341895198972653645
28498 318 18272371953756985789
33532 11 18060421287472351614
33684 2 18113616793947845408
59682541 35 16200147720884491903
67123 10 18412263960409392653
8209 1 18260829306743330925

> <PUBCHEM_SHAPE_MULTIPOLES>
353.09
31.6
1.13
1
44.04
0.15
0.19
3.52
-1.21
-1.91
-0.17
-2.35
0.38
-0.03

> <PUBCHEM_SHAPE_SELFOVERLAP>
603.774

> <PUBCHEM_SHAPE_VOLUME>
236.3

> <PUBCHEM_COORDINATE_TYPE>
2
5
10

$$$$
