20593234
  -OEChem-07202400583D

 41 42  0     1  0  0  0  0  0999 V2000
   -2.3056   -0.3980   -1.7995 S   0  0  0  0  0  0  0  0  0  0  0  0
   -6.8473   -1.6250    0.3905 F   0  0  0  0  0  0  0  0  0  0  0  0
    2.6758    0.5668   -1.8875 O   0  0  0  0  0  0  0  0  0  0  0  0
    6.0311   -1.9210   -0.7061 O   0  0  0  0  0  0  0  0  0  0  0  0
    4.2057   -2.7996    0.3092 O   0  0  0  0  0  0  0  0  0  0  0  0
    0.9407    0.6989   -0.3517 N   0  0  0  0  0  0  0  0  0  0  0  0
    4.3649   -0.5182   -0.1333 N   0  0  0  0  0  0  0  0  0  0  0  0
   -2.0070    1.0431    0.3185 N   0  0  0  0  0  0  0  0  0  0  0  0
    3.2353    0.9266    1.5521 C   0  0  0  0  0  0  0  0  0  0  0  0
    3.0965   -0.0989    0.4068 C   0  0  1  0  0  0  0  0  0  0  0  0
   -0.0741    1.1741   -1.2636 C   0  0  1  0  0  0  0  0  0  0  0  0
    2.2446    0.4322   -0.7442 C   0  0  0  0  0  0  0  0  0  0  0  0
    3.8352    2.2412    1.0436 C   0  0  0  0  0  0  0  0  0  0  0  0
    4.0587    0.4017    2.7330 C   0  0  0  0  0  0  0  0  0  0  0  0
   -1.4327    0.6875   -0.8069 C   0  0  0  0  0  0  0  0  0  0  0  0
   -0.0124    2.6904   -1.4141 C   0  0  0  0  0  0  0  0  0  0  0  0
   -3.5819   -0.4161   -0.6405 C   0  0  0  0  0  0  0  0  0  0  0  0
   -3.2405    0.4177    0.4287 C   0  0  0  0  0  0  0  0  0  0  0  0
    4.8020   -1.8253   -0.1328 C   0  0  0  0  0  0  0  0  0  0  0  0
   -4.7977   -1.1180   -0.6745 C   0  0  0  0  0  0  0  0  0  0  0  0
   -4.1497    0.5517    1.5006 C   0  0  0  0  0  0  0  0  0  0  0  0
   -5.6796   -0.9676    0.3987 C   0  0  0  0  0  0  0  0  0  0  0  0
   -5.3618   -0.1442    1.4732 C   0  0  0  0  0  0  0  0  0  0  0  0
    2.2376    1.1597    1.9443 H   0  0  0  0  0  0  0  0  0  0  0  0
    2.5789   -0.9840    0.7996 H   0  0  0  0  0  0  0  0  0  0  0  0
    0.1532    0.7470   -2.2493 H   0  0  0  0  0  0  0  0  0  0  0  0
    3.2248    2.6899    0.2538 H   0  0  0  0  0  0  0  0  0  0  0  0
    4.8503    2.1045    0.6572 H   0  0  0  0  0  0  0  0  0  0  0  0
    3.8916    2.9724    1.8580 H   0  0  0  0  0  0  0  0  0  0  0  0
    3.6370   -0.5358    3.1100 H   0  0  0  0  0  0  0  0  0  0  0  0
    4.0584    1.1241    3.5563 H   0  0  0  0  0  0  0  0  0  0  0  0
    5.1003    0.2179    2.4496 H   0  0  0  0  0  0  0  0  0  0  0  0
    0.6761    0.5533    0.6181 H   0  0  0  0  0  0  0  0  0  0  0  0
    4.9587    0.1772   -0.5751 H   0  0  0  0  0  0  0  0  0  0  0  0
   -0.1795    3.1926   -0.4541 H   0  0  0  0  0  0  0  0  0  0  0  0
   -0.7749    3.0469   -2.1151 H   0  0  0  0  0  0  0  0  0  0  0  0
    0.9674    3.0100   -1.7850 H   0  0  0  0  0  0  0  0  0  0  0  0
   -5.0528   -1.7626   -1.5099 H   0  0  0  0  0  0  0  0  0  0  0  0
   -3.9115    1.1924    2.3449 H   0  0  0  0  0  0  0  0  0  0  0  0
   -6.0603   -0.0394    2.2988 H   0  0  0  0  0  0  0  0  0  0  0  0
    6.3589   -2.8454   -0.7146 H   0  0  0  0  0  0  0  0  0  0  0  0
  1 15  1  0  0  0  0
  1 17  1  0  0  0  0
  2 22  1  0  0  0  0
  3 12  2  0  0  0  0
  4 19  1  0  0  0  0
  4 41  1  0  0  0  0
  5 19  2  0  0  0  0
  6 11  1  0  0  0  0
  6 12  1  0  0  0  0
  6 33  1  0  0  0  0
  7 10  1  0  0  0  0
  7 19  1  0  0  0  0
  7 34  1  0  0  0  0
  8 15  2  0  0  0  0
  8 18  1  0  0  0  0
  9 10  1  0  0  0  0
  9 13  1  0  0  0  0
  9 14  1  0  0  0  0
  9 24  1  0  0  0  0
 10 12  1  0  0  0  0
 10 25  1  0  0  0  0
 11 15  1  0  0  0  0
 11 16  1  0  0  0  0
 11 26  1  0  0  0  0
 13 27  1  0  0  0  0
 13 28  1  0  0  0  0
 13 29  1  0  0  0  0
 14 30  1  0  0  0  0
 14 31  1  0  0  0  0
 14 32  1  0  0  0  0
 16 35  1  0  0  0  0
 16 36  1  0  0  0  0
 16 37  1  0  0  0  0
 17 18  2  0  0  0  0
 17 20  1  0  0  0  0
 18 21  1  0  0  0  0
 20 22  2  0  0  0  0
 20 38  1  0  0  0  0
 21 23  2  0  0  0  0
 21 39  1  0  0  0  0
 22 23  1  0  0  0  0
 23 40  1  0  0  0  0
M  END
> <PUBCHEM_COMPOUND_CID>
20593234

> <PUBCHEM_CONFORMER_RMSD>
0.8

> <PUBCHEM_CONFORMER_DIVERSEORDER>
1
133
112
20
12
79
137
135
13
39
94
90
125
4
126
68
66
115
142
139
62
56
146
37
151
70
84
144
102
134
152
52
107
8
61
35
92
132
72
21
17
89
148
23
77
136
58
104
27
34
119
47
83
6
105
106
15
101
33
85
103
143
69
138
59
129
113
26
49
73
114
140
78
3
75
60
10
121
76
123
150
100
55
108
153
42
28
99
32
145
93
30
24
9
11
116
147
88
82
128
18
86
131
118
67
5
154
96
87
111
53
2
110
97
149
91
95
36
29
50
71
51
81
22
127
141
64
41
130
31
109
43
80
54
7
120
25
16
117
44
124
38
63
122
46
74
14
57
65
40
98
19
48
45

> <PUBCHEM_MMFF94_PARTIAL_CHARGES>
25
1 -0.08
10 0.36
11 0.48
12 0.57
15 0.2
17 0.04
18 0.23
19 0.78
2 -0.19
20 -0.15
21 -0.15
22 0.19
23 -0.15
3 -0.57
33 0.37
34 0.37
38 0.15
39 0.15
4 -0.65
40 0.15
41 0.5
5 -0.57
6 -0.73
7 -0.73
8 -0.57

> <PUBCHEM_EFFECTIVE_ROTOR_COUNT>
7

> <PUBCHEM_PHARMACOPHORE_FEATURES>
9
1 3 acceptor
1 5 acceptor
1 6 donor
1 7 donor
1 8 acceptor
3 4 5 19 anion
3 9 13 14 hydrophobe
5 1 8 15 17 18 rings
6 17 18 20 21 22 23 rings

> <PUBCHEM_HEAVY_ATOM_COUNT>
23

> <PUBCHEM_ATOM_DEF_STEREO_COUNT>
2

> <PUBCHEM_ATOM_UDEF_STEREO_COUNT>
0

> <PUBCHEM_BOND_DEF_STEREO_COUNT>
0

> <PUBCHEM_BOND_UDEF_STEREO_COUNT>
0

> <PUBCHEM_ISOTOPIC_ATOM_COUNT>
0

> <PUBCHEM_COMPONENT_COUNT>
1

> <PUBCHEM_CACTVS_TAUTO_COUNT>
4

> <PUBCHEM_CONFORMER_ID>
013A3A5200000001

> <PUBCHEM_MMFF94_ENERGY>
36.0216

> <PUBCHEM_FEATURE_SELFOVERLAP>
45.742

> <PUBCHEM_SHAPE_FINGERPRINT>
10319926 262 16845305899308370039
10498660 4 10447925100518944309
10692045 39 13901636160588694406
11069576 57 14779810617388982104
11089746 13 10807933747921925678
11405975 8 17203603800606847374
11545043 162 18339358557044273552
11552529 35 17343480483032279246
12403259 118 15698278889423185441
12596602 18 18201720691252736091
12616971 3 16630239260009286981
12633257 1 17203604874295768108
13103583 49 17917437466822534026
13533116 47 18342176699766563075
13583140 156 17631443475947498725
13668630 136 17749395888310068843
13673619 4 18340772538251809366
13914758 101 18341324519233452373
13955234 65 18341325687211524792
1420 369 18259702289691349643
14251740 57 18334015012184821762
14251764 30 18261394416627660314
14341114 176 17775565330165661968
14341114 328 16630528466159141419
14849402 71 17560507517768360072
14950920 106 17775280556232224419
15003188 33 13190607305031824682
15183329 4 15791723106092838167
15188451 53 18060136570612736983
15238133 3 15267061450021990370
15475509 35 18342736278767399194
15880784 105 18343865532716080939
17870717 6 15647059270341761579
1813 80 18186517726305510693
18222031 100 17967532384836361277
193927 3 17603873281873082701
19784866 240 18187089468647232967
20645477 70 17385729131266455060
21065198 48 17560794476426458589
21756936 100 15481242024746751912
21860390 5 8934704635476764762
23559900 14 15068906425050602157
239999 70 17095529526106326300
2838139 119 11240005516606203123
3004659 81 17167864175077286991
312425 54 18201720656661207403
3472631 163 9655568604451109819
351380 3 17894915122152676803
3737641 26 18123755253672421350
465052 167 18188223099421628191
5104073 3 17274821393610326491
59682541 52 13912591771504291323
7970288 3 18187086126467130330
960060 61 13984661442942535778

> <PUBCHEM_SHAPE_MULTIPOLES>
437.35
14.91
2.15
1.94
6.24
0.29
0.4
8.7
5.99
-2.92
-0.23
-0.61
-0.69
0.62

> <PUBCHEM_SHAPE_SELFOVERLAP>
901.842

> <PUBCHEM_SHAPE_VOLUME>
254.5

> <PUBCHEM_COORDINATE_TYPE>
2
5
10

$$$$
