22235201
  -OEChem-07202400513D

 38 40  0     0  0  0  0  0  0999 V2000
    0.6030    0.0815    2.8716 Cl  0  0  0  0  0  0  0  0  0  0  0  0
    1.2911    1.8479   -0.6997 S   0  0  0  0  0  0  0  0  0  0  0  0
   -5.8030    0.9663    0.9433 F   0  0  0  0  0  0  0  0  0  0  0  0
   -2.5598   -1.8145   -0.9501 O   0  0  0  0  0  0  0  0  0  0  0  0
    1.2556    3.3038   -0.8171 O   0  0  0  0  0  0  0  0  0  0  0  0
    1.7543    1.0487   -1.8327 O   0  0  0  0  0  0  0  0  0  0  0  0
    4.5753   -0.6695   -1.9323 O   0  0  0  0  0  0  0  0  0  0  0  0
    4.4992    1.3330   -0.8597 O   0  0  0  0  0  0  0  0  0  0  0  0
   -2.0769    0.3061   -0.3235 N   0  0  0  0  0  0  0  0  0  0  0  0
    2.2348    1.4538    0.7058 N   0  0  0  0  0  0  0  0  0  0  0  0
   -0.8007    0.1875   -0.7194 N   0  0  0  0  0  0  0  0  0  0  0  0
   -1.2316    2.2695    0.1491 N   0  0  0  0  0  0  0  0  0  0  0  0
   -4.2605   -0.4984   -0.0084 N   0  0  0  0  0  0  0  0  0  0  0  0
   -0.3321    1.4013   -0.4118 C   0  0  0  0  0  0  0  0  0  0  0  0
   -2.3303    1.5502    0.1937 C   0  0  0  0  0  0  0  0  0  0  0  0
    2.5014    0.0523    0.9095 C   0  0  0  0  0  0  0  0  0  0  0  0
   -3.0418   -0.6773   -0.4098 C   0  0  0  0  0  0  0  0  0  0  0  0
    3.4640   -0.5852    0.1268 C   0  0  0  0  0  0  0  0  0  0  0  0
   -3.6547    1.7658    0.6371 C   0  0  0  0  0  0  0  0  0  0  0  0
    1.8037   -0.6667    1.8800 C   0  0  0  0  0  0  0  0  0  0  0  0
    3.7290   -1.9417    0.3146 C   0  0  0  0  0  0  0  0  0  0  0  0
   -4.5366    0.7534    0.5176 C   0  0  0  0  0  0  0  0  0  0  0  0
    2.0688   -2.0233    2.0678 C   0  0  0  0  0  0  0  0  0  0  0  0
    3.0314   -2.6607    1.2851 C   0  0  0  0  0  0  0  0  0  0  0  0
   -3.5225   -2.8523   -1.0549 C   0  0  0  0  0  0  0  0  0  0  0  0
    4.2116    0.1342   -0.8973 C   0  0  0  0  0  0  0  0  0  0  0  0
   -2.8730   -4.0657   -1.6853 C   0  0  0  0  0  0  0  0  0  0  0  0
    1.9232    1.9283    1.5645 H   0  0  0  0  0  0  0  0  0  0  0  0
   -3.9416    2.7213    1.0594 H   0  0  0  0  0  0  0  0  0  0  0  0
    4.4819   -2.4654   -0.2686 H   0  0  0  0  0  0  0  0  0  0  0  0
    1.5343   -2.5980    2.8200 H   0  0  0  0  0  0  0  0  0  0  0  0
    3.2396   -3.7163    1.4335 H   0  0  0  0  0  0  0  0  0  0  0  0
   -4.3601   -2.5287   -1.6841 H   0  0  0  0  0  0  0  0  0  0  0  0
   -3.8948   -3.1223   -0.0595 H   0  0  0  0  0  0  0  0  0  0  0  0
   -2.4810   -3.8211   -2.6781 H   0  0  0  0  0  0  0  0  0  0  0  0
   -2.0236   -4.4049   -1.0831 H   0  0  0  0  0  0  0  0  0  0  0  0
   -3.5883   -4.8873   -1.7810 H   0  0  0  0  0  0  0  0  0  0  0  0
    5.0781   -0.1784   -2.6168 H   0  0  0  0  0  0  0  0  0  0  0  0
  1 20  1  0  0  0  0
  2  5  2  0  0  0  0
  2  6  2  0  0  0  0
  2 10  1  0  0  0  0
  2 14  1  0  0  0  0
  3 22  1  0  0  0  0
  4 17  1  0  0  0  0
  4 25  1  0  0  0  0
  7 26  1  0  0  0  0
  7 38  1  0  0  0  0
  8 26  2  0  0  0  0
  9 11  1  0  0  0  0
  9 15  1  0  0  0  0
  9 17  1  0  0  0  0
 10 16  1  0  0  0  0
 10 28  1  0  0  0  0
 11 14  2  0  0  0  0
 12 14  1  0  0  0  0
 12 15  2  0  0  0  0
 13 17  2  0  0  0  0
 13 22  1  0  0  0  0
 15 19  1  0  0  0  0
 16 18  2  0  0  0  0
 16 20  1  0  0  0  0
 18 21  1  0  0  0  0
 18 26  1  0  0  0  0
 19 22  2  0  0  0  0
 19 29  1  0  0  0  0
 20 23  2  0  0  0  0
 21 24  2  0  0  0  0
 21 30  1  0  0  0  0
 23 24  1  0  0  0  0
 23 31  1  0  0  0  0
 24 32  1  0  0  0  0
 25 27  1  0  0  0  0
 25 33  1  0  0  0  0
 25 34  1  0  0  0  0
 27 35  1  0  0  0  0
 27 36  1  0  0  0  0
 27 37  1  0  0  0  0
M  END
> <PUBCHEM_COMPOUND_CID>
22235201

> <PUBCHEM_CONFORMER_RMSD>
0.8

> <PUBCHEM_CONFORMER_DIVERSEORDER>
1
44
30
60
109
27
47
36
81
95
88
43
8
4
102
48
73
49
78
62
46
55
64
90
69
42
96
85
105
66
87
9
13
94
56
18
103
41
23
97
72
3
59
65
89
38
63
80
6
35
82
76
40
101
77
31
15
26
92
74
21
106
5
16
108
83
24
45
29
17
28
61
86
10
7
25
93
70
32
39
53
19
57
11
58
33
67
98
20
100
75
84
37
91
68
79
104
71
51
50
12
99
2
22
107
54
52
34
14

> <PUBCHEM_MMFF94_PARTIAL_CHARGES>
32
1 -0.18
10 -0.76
11 -0.71
12 -0.57
13 -0.62
14 0.45
15 0.14
16 0.2
17 0.61
18 0.09
19 -0.11
2 1.5
20 0.18
21 -0.15
22 0.32
23 -0.15
24 -0.15
25 0.28
26 0.63
28 0.42
29 0.15
3 -0.15
30 0.15
31 0.15
32 0.15
38 0.5
4 -0.43
5 -0.65
6 -0.65
7 -0.65
8 -0.57
9 0.56

> <PUBCHEM_EFFECTIVE_ROTOR_COUNT>
6

> <PUBCHEM_PHARMACOPHORE_FEATURES>
12
1 10 donor
1 5 acceptor
1 6 acceptor
1 7 acceptor
1 8 acceptor
3 11 12 14 cation
3 7 8 26 anion
3 9 12 15 cation
3 9 13 17 cation
5 9 11 12 14 15 rings
6 16 18 20 21 23 24 rings
6 9 13 15 17 19 22 rings

> <PUBCHEM_HEAVY_ATOM_COUNT>
27

> <PUBCHEM_ATOM_DEF_STEREO_COUNT>
0

> <PUBCHEM_ATOM_UDEF_STEREO_COUNT>
0

> <PUBCHEM_BOND_DEF_STEREO_COUNT>
0

> <PUBCHEM_BOND_UDEF_STEREO_COUNT>
0

> <PUBCHEM_ISOTOPIC_ATOM_COUNT>
0

> <PUBCHEM_COMPONENT_COUNT>
1

> <PUBCHEM_CACTVS_TAUTO_COUNT>
2

> <PUBCHEM_CONFORMER_ID>
0153484100000001

> <PUBCHEM_MMFF94_ENERGY>
70.1658

> <PUBCHEM_FEATURE_SELFOVERLAP>
63.972

> <PUBCHEM_SHAPE_FINGERPRINT>
11578080 2 17972002981835744940
12166972 35 11599996635709410843
12403259 327 17417513753552171579
12403260 363 9367347024387093382
12553582 1 18260537901232539288
12633257 1 17703778181465158483
12788726 201 18269564840236588225
13257819 101 14129349546029488038
13583140 156 17894353302577598621
13911987 19 15793168955193228606
15537594 2 18261119560142733623
17349148 13 18130490973736344293
20291156 8 18189329087258634800
20554085 129 17201924726920584473
21033648 29 15984533387239850465
21703447 108 17626085805505073593
23559900 14 17846786212644786285
238 59 17096077116792460234
463206 1 18260831513987516018
7097593 13 18410847785370101289
9981440 41 17329716933788976072

> <PUBCHEM_SHAPE_MULTIPOLES>
499.84
9.65
3.54
1.97
4.51
2.38
0.79
2.01
-1.05
1.85
-1.32
-1.35
0.72
-2.93

> <PUBCHEM_SHAPE_SELFOVERLAP>
1067.78

> <PUBCHEM_SHAPE_VOLUME>
280.9

> <PUBCHEM_COORDINATE_TYPE>
2
5
10

$$$$
