23274975
  -OEChem-07202400523D

 29 30  0     0  0  0  0  0  0999 V2000
    5.6991   -2.2611    0.4476 Br  0  0  0  0  0  0  0  0  0  0  0  0
    1.2368    1.7680   -0.3478 O   0  0  0  0  0  0  0  0  0  0  0  0
   -4.0405   -2.0376   -0.7781 O   0  0  0  0  0  0  0  0  0  0  0  0
   -3.9777    0.0207    0.3658 N   0  0  0  0  0  0  0  0  0  0  0  0
   -5.9075   -1.2479    0.2763 N   0  0  0  0  0  0  0  0  0  0  0  0
   -0.0425    1.3387   -0.1722 C   0  0  0  0  0  0  0  0  0  0  0  0
   -2.6656    0.4595    0.1870 C   0  0  0  0  0  0  0  0  0  0  0  0
   -0.9430    2.1120    0.5603 C   0  0  0  0  0  0  0  0  0  0  0  0
   -0.4534    0.1257   -0.7252 C   0  0  0  0  0  0  0  0  0  0  0  0
   -2.2545    1.6724    0.7399 C   0  0  0  0  0  0  0  0  0  0  0  0
   -1.7650   -0.3139   -0.5456 C   0  0  0  0  0  0  0  0  0  0  0  0
    2.2555    0.8474   -0.1665 C   0  0  0  0  0  0  0  0  0  0  0  0
    2.2343   -0.0083    0.9348 C   0  0  0  0  0  0  0  0  0  0  0  0
    3.3030    0.7762   -1.0850 C   0  0  0  0  0  0  0  0  0  0  0  0
    3.2602   -0.9352    1.1179 C   0  0  0  0  0  0  0  0  0  0  0  0
    4.3292   -0.1508   -0.9019 C   0  0  0  0  0  0  0  0  0  0  0  0
    4.3077   -1.0064    0.1996 C   0  0  0  0  0  0  0  0  0  0  0  0
   -4.5760   -1.1592   -0.1070 C   0  0  0  0  0  0  0  0  0  0  0  0
   -0.6284    3.0575    0.9936 H   0  0  0  0  0  0  0  0  0  0  0  0
    0.2208   -0.4852   -1.3200 H   0  0  0  0  0  0  0  0  0  0  0  0
   -2.9457    2.2853    1.3130 H   0  0  0  0  0  0  0  0  0  0  0  0
   -2.0114   -1.2596   -1.0078 H   0  0  0  0  0  0  0  0  0  0  0  0
    1.4423    0.0408    1.6775 H   0  0  0  0  0  0  0  0  0  0  0  0
    3.3241    1.4402   -1.9447 H   0  0  0  0  0  0  0  0  0  0  0  0
   -4.5784    0.6355    0.9098 H   0  0  0  0  0  0  0  0  0  0  0  0
    3.2314   -1.5915    1.9839 H   0  0  0  0  0  0  0  0  0  0  0  0
    5.1381   -0.1933   -1.6267 H   0  0  0  0  0  0  0  0  0  0  0  0
   -6.3528   -0.5243    0.8305 H   0  0  0  0  0  0  0  0  0  0  0  0
   -6.4774   -2.0443    0.0112 H   0  0  0  0  0  0  0  0  0  0  0  0
  1 17  1  0  0  0  0
  2  6  1  0  0  0  0
  2 12  1  0  0  0  0
  3 18  2  0  0  0  0
  4  7  1  0  0  0  0
  4 18  1  0  0  0  0
  4 25  1  0  0  0  0
  5 18  1  0  0  0  0
  5 28  1  0  0  0  0
  5 29  1  0  0  0  0
  6  8  2  0  0  0  0
  6  9  1  0  0  0  0
  7 10  2  0  0  0  0
  7 11  1  0  0  0  0
  8 10  1  0  0  0  0
  8 19  1  0  0  0  0
  9 11  2  0  0  0  0
  9 20  1  0  0  0  0
 10 21  1  0  0  0  0
 11 22  1  0  0  0  0
 12 13  2  0  0  0  0
 12 14  1  0  0  0  0
 13 15  1  0  0  0  0
 13 23  1  0  0  0  0
 14 16  2  0  0  0  0
 14 24  1  0  0  0  0
 15 17  2  0  0  0  0
 15 26  1  0  0  0  0
 16 17  1  0  0  0  0
 16 27  1  0  0  0  0
M  END
> <PUBCHEM_COMPOUND_CID>
23274975

> <PUBCHEM_CONFORMER_RMSD>
0.6

> <PUBCHEM_CONFORMER_DIVERSEORDER>
1
13
23
30
2
10
7
17
14
15
28
8
25
22
9
24
29
16
31
12
11
27
26
4
3
34
33
35
20
21
32
18
19
5
6

> <PUBCHEM_MMFF94_PARTIAL_CHARGES>
29
1 -0.11
10 -0.15
11 -0.15
12 0.08
13 -0.15
14 -0.15
15 -0.15
16 -0.15
17 0.11
18 0.69
19 0.15
2 -0.17
20 0.15
21 0.15
22 0.15
23 0.15
24 0.15
25 0.37
26 0.15
27 0.15
28 0.37
29 0.37
3 -0.57
4 -0.55
5 -0.8
6 0.08
7 0.12
8 -0.15
9 -0.15

> <PUBCHEM_EFFECTIVE_ROTOR_COUNT>
4

> <PUBCHEM_PHARMACOPHORE_FEATURES>
7
1 1 hydrophobe
1 2 acceptor
1 3 acceptor
1 4 donor
1 5 donor
6 12 13 14 15 16 17 rings
6 6 7 8 9 10 11 rings

> <PUBCHEM_HEAVY_ATOM_COUNT>
18

> <PUBCHEM_ATOM_DEF_STEREO_COUNT>
0

> <PUBCHEM_ATOM_UDEF_STEREO_COUNT>
0

> <PUBCHEM_BOND_DEF_STEREO_COUNT>
0

> <PUBCHEM_BOND_UDEF_STEREO_COUNT>
0

> <PUBCHEM_ISOTOPIC_ATOM_COUNT>
0

> <PUBCHEM_COMPONENT_COUNT>
1

> <PUBCHEM_CACTVS_TAUTO_COUNT>
3

> <PUBCHEM_CONFORMER_ID>
016325DF00000001

> <PUBCHEM_MMFF94_ENERGY>
60.2779

> <PUBCHEM_FEATURE_SELFOVERLAP>
35.568

> <PUBCHEM_SHAPE_FINGERPRINT>
11046707 91 18412544288545478137
11578080 2 18262779839987066492
12236239 1 18334298643404030572
12596602 18 17775002375817411010
12633257 1 15984809472116844250
12839892 36 17988642965135148559
12892183 10 16056324916785727864
12916754 54 18261393317232219980
13167823 11 18334576854205342871
13533116 47 18409168852261964528
13675066 3 16487259845912259693
13862211 1 18272366499533973103
14178342 30 17915751876800541768
1420 369 18412544309999248075
14576447 43 18041279873102754674
15188451 53 16844998122384865031
15342816 4 18336555945329207348
15885798 251 18343302600058709253
17804303 29 18131351899229278529
17834072 33 18335706061242531708
17959699 21 8358257046899553534
1813 80 18261403242642990341
18186145 218 14129060309334788189
18222031 100 17917427679056471957
18915474 69 18333453157579949262
193927 3 18336838536412040507
19422 9 18335709295511238876
19784866 240 18187086126476965150
200 152 17967814937813004920
20281475 54 18409168775364224076
20291156 8 18411134753293342473
20645477 56 7853569119475174025
20645477 70 17676486159674882006
21033648 29 15410619138136079441
21267235 1 18409455773305003970
212847 35 8935003651035991166
21637258 2 18334568023795033730
22646028 28 18408041792951335216
22950370 63 18410015441845031535
23503958 8 18200310996844048346
235170 7 15936680536770707799
23559900 14 18339632425718500681
23596394 208 16226038985997895834
270888 7 10015571814410189970
2838139 119 10883413057149712054
2871803 45 17458343035480912114
3004659 81 18040431088052790930
312423 11 18410303509823901620
351380 3 18408886248036272907
4028521 119 12324241654669205261
465052 167 18339087080983484751
5104073 3 18131634478039004224
559249 180 18337106762042052577
59682541 52 13840531922956725714
76465 3 18410291410668406945
7808743 9 8862932875463999622
7970288 3 18410290315494879978
960060 61 17531247283188865199

> <PUBCHEM_SHAPE_MULTIPOLES>
354.67
12.12
2.14
1
1.47
0.21
0
10.1
0.45
0.4
0.12
-0.53
-0.03
-1.27

> <PUBCHEM_SHAPE_SELFOVERLAP>
746.794

> <PUBCHEM_SHAPE_VOLUME>
204.5

> <PUBCHEM_COORDINATE_TYPE>
2
5
10

$$$$
