24822142
  -OEChem-07202400573D

 49 52  0     1  0  0  0  0  0999 V2000
   -2.3605   -2.9404    2.5437 Br  0  0  0  0  0  0  0  0  0  0  0  0
    3.5262    1.6192    3.9668 Br  0  0  0  0  0  0  0  0  0  0  0  0
   -6.5776   -1.7317   -0.8085 Cl  0  0  0  0  0  0  0  0  0  0  0  0
    4.5244    0.6980   -1.1469 Cl  0  0  0  0  0  0  0  0  0  0  0  0
   -2.0992    1.1873   -2.1667 O   0  0  0  0  0  0  0  0  0  0  0  0
    0.1680   -0.6452   -0.8679 O   0  0  0  0  0  0  0  0  0  0  0  0
   -1.9343    2.1855   -0.0800 N   0  0  0  0  0  0  0  0  0  0  0  0
   -1.1257   -0.4505    1.0841 N   0  0  0  0  0  0  0  0  0  0  0  0
    2.5434   -0.4983    0.8063 N   0  0  0  0  0  0  0  0  0  0  0  0
    3.4772   -0.0429    1.6588 N   0  0  0  0  0  0  0  0  0  0  0  0
    2.3494   -2.5565   -0.2733 N   0  0  0  0  0  0  0  0  0  0  0  0
    0.2475    3.1801   -0.5127 C   0  0  0  0  0  0  0  0  0  0  0  0
    0.9131    2.5927   -1.7226 C   0  0  0  0  0  0  0  0  0  0  0  0
    1.1079    4.0426   -1.3886 C   0  0  0  0  0  0  0  0  0  0  0  0
   -1.2620    3.3846   -0.5194 C   0  0  2  0  0  0  0  0  0  0  0  0
   -1.6673    4.5450    0.3417 C   0  0  0  0  0  0  0  0  0  0  0  0
   -2.3009    1.1740   -0.9552 C   0  0  0  0  0  0  0  0  0  0  0  0
   -3.0093    0.0168   -0.3500 C   0  0  0  0  0  0  0  0  0  0  0  0
   -2.4183   -0.7632    0.6438 C   0  0  0  0  0  0  0  0  0  0  0  0
   -4.2954   -0.2827   -0.7992 C   0  0  0  0  0  0  0  0  0  0  0  0
   -3.1133   -1.8428    1.1887 C   0  0  0  0  0  0  0  0  0  0  0  0
   -4.9906   -1.3623   -0.2543 C   0  0  0  0  0  0  0  0  0  0  0  0
   -4.3995   -2.1424    0.7397 C   0  0  0  0  0  0  0  0  0  0  0  0
    0.0505   -0.4110    0.3301 C   0  0  0  0  0  0  0  0  0  0  0  0
    1.2802   -0.0710    1.0928 C   0  0  0  0  0  0  0  0  0  0  0  0
    1.3956    0.7185    2.2109 C   0  0  0  0  0  0  0  0  0  0  0  0
    2.9152   -1.3289   -0.2510 C   0  0  0  0  0  0  0  0  0  0  0  0
    2.7700    0.6998    2.5146 C   0  0  0  0  0  0  0  0  0  0  0  0
    3.8175   -0.8734   -1.1988 C   0  0  0  0  0  0  0  0  0  0  0  0
    4.1610   -1.7329   -2.2364 C   0  0  0  0  0  0  0  0  0  0  0  0
    2.7072   -3.3642   -1.2968 C   0  0  0  0  0  0  0  0  0  0  0  0
    3.5997   -3.0039   -2.2935 C   0  0  0  0  0  0  0  0  0  0  0  0
    0.6384    2.9347    0.4659 H   0  0  0  0  0  0  0  0  0  0  0  0
    1.7455    1.9213   -1.5620 H   0  0  0  0  0  0  0  0  0  0  0  0
    0.3180    2.3611   -2.5965 H   0  0  0  0  0  0  0  0  0  0  0  0
    0.6312    4.7749   -2.0284 H   0  0  0  0  0  0  0  0  0  0  0  0
    2.0746    4.3450   -1.0049 H   0  0  0  0  0  0  0  0  0  0  0  0
   -1.5901    3.5933   -1.5459 H   0  0  0  0  0  0  0  0  0  0  0  0
   -1.3723    4.3929    1.3867 H   0  0  0  0  0  0  0  0  0  0  0  0
   -2.7531    4.6912    0.3255 H   0  0  0  0  0  0  0  0  0  0  0  0
   -1.1977    5.4745    0.0022 H   0  0  0  0  0  0  0  0  0  0  0  0
   -2.1009    2.0630    0.9151 H   0  0  0  0  0  0  0  0  0  0  0  0
   -4.7567    0.3272   -1.5729 H   0  0  0  0  0  0  0  0  0  0  0  0
   -0.9858   -0.5866    2.0837 H   0  0  0  0  0  0  0  0  0  0  0  0
   -4.9458   -2.9834    1.1615 H   0  0  0  0  0  0  0  0  0  0  0  0
    0.6006    1.2364    2.7292 H   0  0  0  0  0  0  0  0  0  0  0  0
    4.8634   -1.4280   -3.0076 H   0  0  0  0  0  0  0  0  0  0  0  0
    2.2412   -4.3440   -1.2959 H   0  0  0  0  0  0  0  0  0  0  0  0
    3.8525   -3.6907   -3.0932 H   0  0  0  0  0  0  0  0  0  0  0  0
  1 21  1  0  0  0  0
  2 28  1  0  0  0  0
  3 22  1  0  0  0  0
  4 29  1  0  0  0  0
  5 17  2  0  0  0  0
  6 24  2  0  0  0  0
  7 15  1  0  0  0  0
  7 17  1  0  0  0  0
  7 42  1  0  0  0  0
  8 19  1  0  0  0  0
  8 24  1  0  0  0  0
  8 44  1  0  0  0  0
  9 10  1  0  0  0  0
  9 25  1  0  0  0  0
  9 27  1  0  0  0  0
 10 28  2  0  0  0  0
 11 27  1  0  0  0  0
 11 31  2  0  0  0  0
 12 13  1  0  0  0  0
 12 14  1  0  0  0  0
 12 15  1  0  0  0  0
 12 33  1  0  0  0  0
 13 14  1  0  0  0  0
 13 34  1  0  0  0  0
 13 35  1  0  0  0  0
 14 36  1  0  0  0  0
 14 37  1  0  0  0  0
 15 16  1  0  0  0  0
 15 38  1  0  0  0  0
 16 39  1  0  0  0  0
 16 40  1  0  0  0  0
 16 41  1  0  0  0  0
 17 18  1  0  0  0  0
 18 19  2  0  0  0  0
 18 20  1  0  0  0  0
 19 21  1  0  0  0  0
 20 22  2  0  0  0  0
 20 43  1  0  0  0  0
 21 23  2  0  0  0  0
 22 23  1  0  0  0  0
 23 45  1  0  0  0  0
 24 25  1  0  0  0  0
 25 26  2  0  0  0  0
 26 28  1  0  0  0  0
 26 46  1  0  0  0  0
 27 29  2  0  0  0  0
 29 30  1  0  0  0  0
 30 32  2  0  0  0  0
 30 47  1  0  0  0  0
 31 32  1  0  0  0  0
 31 48  1  0  0  0  0
 32 49  1  0  0  0  0
M  END
> <PUBCHEM_COMPOUND_CID>
24822142

> <PUBCHEM_CONFORMER_RMSD>
1

> <PUBCHEM_CONFORMER_DIVERSEORDER>
2
58
48
106
105
94
165
51
22
223
37
127
92
205
110
189
67
52
218
171
71
96
203
153
3
168
139
93
122
59
190
97
63
156
151
6
62
8
164
150
219
224
180
162
185
194
109
113
80
135
41
64
18
44
45
196
147
221
178
50
49
119
210
25
101
129
78
42
99
47
65
193
46
184
192
159
160
170
202
148
19
213
191
85
220
161
72
215
217
28
177
222
14
173
124
167
40
195
4
158
5
86
204
181
31
81
138
212
43
187
30
121
20
198
120
163
214
144
118
141
157
172
145
32
39
79
70
143
73
188
16
55
132
211
199
68
34
54
83
13
21
103
126
104
206
75
9
229
90
166
57
23
179
154
134
169
66
69
84
24
74
29
228
100
125
207
98
227
186
102
60
88
87
107
216
15
149
36
201
155
183
10
17
197
176
91
131
77
82
1
115
27
95
38
225
123
33
108
230
111
12
117
136
130
11
133
226
112
137
208
182
7
76
116
114
128
140
61
146
56
142
89
35
152
200
175
174
53
26
209

> <PUBCHEM_MMFF94_PARTIAL_CHARGES>
44
1 -0.11
10 -0.71
11 -0.62
12 -0.19
13 -0.2
14 -0.2
15 0.4
17 0.54
18 0.09
19 0.12
2 -0.06
20 -0.15
21 0.11
22 0.18
23 -0.15
24 0.71
25 -0.24
26 -0.15
27 0.29
28 0.35
29 0.18
3 -0.18
30 -0.15
31 0.16
32 -0.15
33 0.1
34 0.1
35 0.1
36 0.1
37 0.1
4 -0.18
42 0.37
43 0.15
44 0.37
45 0.15
46 0.15
47 0.15
48 0.15
49 0.15
5 -0.57
6 -0.57
7 -0.73
8 -0.55
9 0.59

> <PUBCHEM_EFFECTIVE_ROTOR_COUNT>
8.6

> <PUBCHEM_PHARMACOPHORE_FEATURES>
11
1 1 hydrophobe
1 10 acceptor
1 11 acceptor
1 2 hydrophobe
1 5 acceptor
1 6 acceptor
1 7 donor
1 8 donor
5 9 10 25 26 28 rings
6 11 27 29 30 31 32 rings
6 18 19 20 21 22 23 rings

> <PUBCHEM_HEAVY_ATOM_COUNT>
32

> <PUBCHEM_ATOM_DEF_STEREO_COUNT>
0

> <PUBCHEM_ATOM_UDEF_STEREO_COUNT>
1

> <PUBCHEM_BOND_DEF_STEREO_COUNT>
0

> <PUBCHEM_BOND_UDEF_STEREO_COUNT>
0

> <PUBCHEM_ISOTOPIC_ATOM_COUNT>
0

> <PUBCHEM_COMPONENT_COUNT>
1

> <PUBCHEM_CACTVS_TAUTO_COUNT>
5

> <PUBCHEM_CONFORMER_ID>
017AC17E00000002

> <PUBCHEM_MMFF94_ENERGY>
104.7566

> <PUBCHEM_FEATURE_SELFOVERLAP>
55.824

> <PUBCHEM_SHAPE_FINGERPRINT>
10165383 225 17773308144742978688
10369192 42 17630304537253506928
11578080 2 18058167216396361712
12160290 23 17824821148961539713
12623949 98 17632298994889063127
12788726 201 18186520986501692739
140371 6 18336541707375691809
15324884 4 18341884191314508495
15420108 30 17333069323229870456
15475509 8 18337679607979912629
15664445 248 18334579070398138944
17909252 39 18265918988918064468
1979834 28 18199176472511201409
19930381 70 18120680147008037596
20028762 73 15667352208804961931
20600515 1 17896855803199331849
20642791 239 16951142771311235821
22440779 20 17984452700467312481
229495 10 17202458087910568401
23557571 272 18335693919000512696
23559900 14 18263648523213284231
244849 19 17701802320383710144
621550 34 18058993086260250760
6287921 2 18201429341676998756
6823239 73 18189059848654144050
7399639 24 18058426824971433744
81228 2 18263358110251479441
9658208 31 17980472365696838369
9981440 41 13191208854204442910

> <PUBCHEM_SHAPE_MULTIPOLES>
637.53
9.95
4.88
2.99
9.13
3.95
-2.61
-7.44
1.54
-0.79
1.88
-3.88
-0.08
3.6

> <PUBCHEM_SHAPE_SELFOVERLAP>
1332.593

> <PUBCHEM_SHAPE_VOLUME>
370

> <PUBCHEM_COORDINATE_TYPE>
2
5
10

$$$$
