248886
  -OEChem-07202400323D

 56 58  0     0  0  0  0  0  0999 V2000
    0.1184   -0.0757   -0.1995 P   0  0  0  0  0  0  0  0  0  0  0  0
    0.7786    1.1852    0.5768 O   0  0  0  0  0  0  0  0  0  0  0  0
    0.8486   -1.3496    0.4776 O   0  0  0  0  0  0  0  0  0  0  0  0
   -1.3737   -0.1404    0.4200 O   0  0  0  0  0  0  0  0  0  0  0  0
    0.1907   -0.0142   -1.6996 O   0  0  0  0  0  0  0  0  0  0  0  0
   -1.0598    4.1382   -0.5569 C   0  0  0  0  0  0  0  0  0  0  0  0
    4.3629   -1.1212   -0.5140 C   0  0  0  0  0  0  0  0  0  0  0  0
   -4.4744   -2.0804    0.5004 C   0  0  0  0  0  0  0  0  0  0  0  0
    0.3872    2.4818    0.4427 C   0  0  0  0  0  0  0  0  0  0  0  0
    2.1794   -1.6461    0.3590 C   0  0  0  0  0  0  0  0  0  0  0  0
   -2.2874   -1.1267    0.1649 C   0  0  0  0  0  0  0  0  0  0  0  0
   -0.4128    5.1401    0.1664 C   0  0  0  0  0  0  0  0  0  0  0  0
    4.8843   -2.2509    0.1163 C   0  0  0  0  0  0  0  0  0  0  0  0
   -4.1437   -3.1337   -0.3521 C   0  0  0  0  0  0  0  0  0  0  0  0
   -0.6598    2.8091   -0.4188 C   0  0  0  0  0  0  0  0  0  0  0  0
    3.0068   -0.8178   -0.3923 C   0  0  0  0  0  0  0  0  0  0  0  0
   -3.5438   -1.0742    0.7597 C   0  0  0  0  0  0  0  0  0  0  0  0
    1.0342    3.4837    1.1662 C   0  0  0  0  0  0  0  0  0  0  0  0
    2.6934   -2.7742    0.9902 C   0  0  0  0  0  0  0  0  0  0  0  0
   -1.9516   -2.1745   -0.6864 C   0  0  0  0  0  0  0  0  0  0  0  0
    0.6342    4.8128    1.0279 C   0  0  0  0  0  0  0  0  0  0  0  0
    4.0495   -3.0775    0.8684 C   0  0  0  0  0  0  0  0  0  0  0  0
   -2.8822   -3.1806   -0.9456 C   0  0  0  0  0  0  0  0  0  0  0  0
   -2.1838    4.4648   -1.4844 C   0  0  0  0  0  0  0  0  0  0  0  0
    5.2377   -0.2212   -1.3234 C   0  0  0  0  0  0  0  0  0  0  0  0
   -5.8191   -2.0086    1.1461 C   0  0  0  0  0  0  0  0  0  0  0  0
   -0.8232    6.5699    0.0348 C   0  0  0  0  0  0  0  0  0  0  0  0
    6.3326   -2.5959    0.0003 C   0  0  0  0  0  0  0  0  0  0  0  0
   -5.1233   -4.2222   -0.6445 C   0  0  0  0  0  0  0  0  0  0  0  0
   -1.1827    2.0527   -0.9933 H   0  0  0  0  0  0  0  0  0  0  0  0
    2.6314    0.0676   -0.8922 H   0  0  0  0  0  0  0  0  0  0  0  0
   -3.7893   -0.2480    1.4221 H   0  0  0  0  0  0  0  0  0  0  0  0
    1.8507    3.2344    1.8384 H   0  0  0  0  0  0  0  0  0  0  0  0
    2.0465   -3.4207    1.5764 H   0  0  0  0  0  0  0  0  0  0  0  0
   -0.9847   -2.2552   -1.1691 H   0  0  0  0  0  0  0  0  0  0  0  0
    1.1494    5.5807    1.5989 H   0  0  0  0  0  0  0  0  0  0  0  0
    4.4390   -3.9616    1.3660 H   0  0  0  0  0  0  0  0  0  0  0  0
   -2.6083   -3.9944   -1.6119 H   0  0  0  0  0  0  0  0  0  0  0  0
   -2.5822    3.5692   -1.9738 H   0  0  0  0  0  0  0  0  0  0  0  0
   -3.0118    4.9283   -0.9383 H   0  0  0  0  0  0  0  0  0  0  0  0
   -1.8460    5.1412   -2.2763 H   0  0  0  0  0  0  0  0  0  0  0  0
    6.0313    0.2059   -0.7018 H   0  0  0  0  0  0  0  0  0  0  0  0
    5.6848   -0.7683   -2.1598 H   0  0  0  0  0  0  0  0  0  0  0  0
    4.6764    0.6174   -1.7504 H   0  0  0  0  0  0  0  0  0  0  0  0
   -5.9892   -2.8836    1.7817 H   0  0  0  0  0  0  0  0  0  0  0  0
   -5.9163   -1.1229    1.7837 H   0  0  0  0  0  0  0  0  0  0  0  0
   -6.6078   -1.9491    0.3892 H   0  0  0  0  0  0  0  0  0  0  0  0
   -1.8663    6.7017    0.3402 H   0  0  0  0  0  0  0  0  0  0  0  0
   -0.2162    7.2262    0.6683 H   0  0  0  0  0  0  0  0  0  0  0  0
   -0.6995    6.9134   -0.9973 H   0  0  0  0  0  0  0  0  0  0  0  0
    6.9543   -1.7941    0.4116 H   0  0  0  0  0  0  0  0  0  0  0  0
    6.5775   -3.5098    0.5528 H   0  0  0  0  0  0  0  0  0  0  0  0
    6.6055   -2.7687   -1.0458 H   0  0  0  0  0  0  0  0  0  0  0  0
   -6.0226   -3.8151   -1.1180 H   0  0  0  0  0  0  0  0  0  0  0  0
   -4.7075   -4.9689   -1.3301 H   0  0  0  0  0  0  0  0  0  0  0  0
   -5.4015   -4.7480    0.2746 H   0  0  0  0  0  0  0  0  0  0  0  0
  1  2  1  0  0  0  0
  1  3  1  0  0  0  0
  1  4  1  0  0  0  0
  1  5  2  0  0  0  0
  2  9  1  0  0  0  0
  3 10  1  0  0  0  0
  4 11  1  0  0  0  0
  6 12  2  0  0  0  0
  6 15  1  0  0  0  0
  6 24  1  0  0  0  0
  7 13  2  0  0  0  0
  7 16  1  0  0  0  0
  7 25  1  0  0  0  0
  8 14  2  0  0  0  0
  8 17  1  0  0  0  0
  8 26  1  0  0  0  0
  9 15  2  0  0  0  0
  9 18  1  0  0  0  0
 10 16  2  0  0  0  0
 10 19  1  0  0  0  0
 11 17  2  0  0  0  0
 11 20  1  0  0  0  0
 12 21  1  0  0  0  0
 12 27  1  0  0  0  0
 13 22  1  0  0  0  0
 13 28  1  0  0  0  0
 14 23  1  0  0  0  0
 14 29  1  0  0  0  0
 15 30  1  0  0  0  0
 16 31  1  0  0  0  0
 17 32  1  0  0  0  0
 18 21  2  0  0  0  0
 18 33  1  0  0  0  0
 19 22  2  0  0  0  0
 19 34  1  0  0  0  0
 20 23  2  0  0  0  0
 20 35  1  0  0  0  0
 21 36  1  0  0  0  0
 22 37  1  0  0  0  0
 23 38  1  0  0  0  0
 24 39  1  0  0  0  0
 24 40  1  0  0  0  0
 24 41  1  0  0  0  0
 25 42  1  0  0  0  0
 25 43  1  0  0  0  0
 25 44  1  0  0  0  0
 26 45  1  0  0  0  0
 26 46  1  0  0  0  0
 26 47  1  0  0  0  0
 27 48  1  0  0  0  0
 27 49  1  0  0  0  0
 27 50  1  0  0  0  0
 28 51  1  0  0  0  0
 28 52  1  0  0  0  0
 28 53  1  0  0  0  0
 29 54  1  0  0  0  0
 29 55  1  0  0  0  0
 29 56  1  0  0  0  0
M  END
> <PUBCHEM_COMPOUND_CID>
248886

> <PUBCHEM_CONFORMER_RMSD>
0.8

> <PUBCHEM_CONFORMER_DIVERSEORDER>
3
8
175
165
30
135
53
98
182
195
211
46
213
122
1
32
174
140
147
125
4
176
138
193
127
2
204
142
212
17
115
99
50
156
128
180
121
5
194
67
37
86
126
43
173
150
114
88
116
185
95
196
191
197
97
139
184
36
44
75
214
123
188
59
24
111
72
145
7
189
87
117
202
215
47
106
178
65
34
198
167
149
93
96
205
21
76
187
179
107
38
109
69
91
183
12
61
124
48
148
89
164
52
131
62
9
203
119
103
94
6
102
166
79
23
170
118
81
60
13
132
105
55
206
39
57
85
155
10
210
28
58
73
11
68
172
51
45
56
163
158
27
113
14
151
104
77
15
90
54
120
80
136
49
134
171
16
207
144
154
130
159
162
29
19
40
133
18
168
209
66
35
83
199
74
26
100
110
31
169
161
108
82
192
177
78
64
153
157
141
152
160
201
25
146
208
22
186
200
20
33
101
143
181
92
84
137
112
129
190
41
71
70
63
42

> <PUBCHEM_MMFF94_PARTIAL_CHARGES>
38
1 1.51
10 0.08
11 0.08
12 -0.14
13 -0.14
14 -0.14
15 -0.15
16 -0.15
17 -0.15
18 -0.15
19 -0.15
2 -0.35
20 -0.15
21 -0.15
22 -0.15
23 -0.15
24 0.14
25 0.14
26 0.14
27 0.14
28 0.14
29 0.14
3 -0.35
30 0.15
31 0.15
32 0.15
33 0.15
34 0.15
35 0.15
36 0.15
37 0.15
38 0.15
4 -0.35
5 -0.7
6 -0.14
7 -0.14
8 -0.14
9 0.08

> <PUBCHEM_EFFECTIVE_ROTOR_COUNT>
6

> <PUBCHEM_PHARMACOPHORE_FEATURES>
4
1 5 acceptor
6 6 9 12 15 18 21 rings
6 7 10 13 16 19 22 rings
6 8 11 14 17 20 23 rings

> <PUBCHEM_HEAVY_ATOM_COUNT>
29

> <PUBCHEM_ATOM_DEF_STEREO_COUNT>
0

> <PUBCHEM_ATOM_UDEF_STEREO_COUNT>
0

> <PUBCHEM_BOND_DEF_STEREO_COUNT>
0

> <PUBCHEM_BOND_UDEF_STEREO_COUNT>
0

> <PUBCHEM_ISOTOPIC_ATOM_COUNT>
0

> <PUBCHEM_COMPONENT_COUNT>
1

> <PUBCHEM_CACTVS_TAUTO_COUNT>
1

> <PUBCHEM_CONFORMER_ID>
0003CC3600000003

> <PUBCHEM_MMFF94_ENERGY>
81.1425

> <PUBCHEM_FEATURE_SELFOVERLAP>
20.298

> <PUBCHEM_SHAPE_FINGERPRINT>
10050765 1 18051975012075829747
10411042 1 18411135857074025075
11045515 52 18410295813031205635
11056379 131 18195535796570955006
11763715 3 18265355991693544622
12107183 9 18271540766596932291
12553582 1 18411410730733753858
12788726 201 18190175685389750794
13540713 5 17699578241075612051
13590594 115 18410019853325064707
138480 1 15096769762941730970
13955234 65 17905895030310113499
14068700 675 18334863827262601278
14251757 5 18265328396307108397
14394314 77 18411144666056918771
14849402 71 18050861201720495787
15439362 3 17834961145708770721
15705408 1 18050566545098511303
15775530 1 17971723766512102109
16087824 20 18266460894164997617
16993438 75 17975139742918089169
17980427 26 17693655231068462237
20028762 73 16683143052206485822
20101258 96 18410294696635094675
20600515 1 17916886641772850723
21049683 271 18117572922599520605
21796203 349 17976579213802634579
23366157 5 17979077407484018719
23559900 14 18194676193374131035
23598288 3 18122054308988910454
23929065 36 18266440037497431506
283562 15 18260833640292006178
4017518 198 17192923381659451068
4058900 60 17402341863347330321
4409770 3 18120936109979236213
474 4 17545316845153866689
504843 32 17759240696022932684
5171179 24 18265318681681617263
6058803 2 17970916553648536178
6673363 416 18339094770029551230
6691757 9 17621301452371583658
6700243 42 17914365436194245398
77188 2 18339077193614951644
79837 15 17690559680528923801
9981440 41 17401487048432497393

> <PUBCHEM_SHAPE_MULTIPOLES>
577.18
10.81
9.35
1.18
4.68
18.32
-0.15
-20.04
-0.12
-5.73
0.06
-0.1
0.22
0.02

> <PUBCHEM_SHAPE_SELFOVERLAP>
1222.172

> <PUBCHEM_SHAPE_VOLUME>
325.3

> <PUBCHEM_COORDINATE_TYPE>
2
5
10

$$$$
