25181547
  -OEChem-07202400533D

 30 31  0     0  0  0  0  0  0999 V2000
    4.9222    0.3904   -0.3335 Cl  0  0  0  0  0  0  0  0  0  0  0  0
   -5.4370    0.6882    0.6899 Cl  0  0  0  0  0  0  0  0  0  0  0  0
   -1.1577   -1.1352   -1.3638 F   0  0  0  0  0  0  0  0  0  0  0  0
   -3.8592   -1.1468   -1.0927 O   0  0  0  0  0  0  0  0  0  0  0  0
    2.5716   -2.8570   -0.1431 O   0  0  0  0  0  0  0  0  0  0  0  0
    3.8728   -1.9935    1.5084 O   0  0  0  0  0  0  0  0  0  0  0  0
    1.0960   -0.5188    0.3747 N   0  0  0  0  0  0  0  0  0  0  0  0
    3.2471    2.8326   -0.9843 N   0  0  0  0  0  0  0  0  0  0  0  0
   -0.9499    0.6450    0.1944 C   0  0  0  0  0  0  0  0  0  0  0  0
    0.4894    0.6436    0.0449 C   0  0  0  0  0  0  0  0  0  0  0  0
   -1.7317   -0.2582   -0.5258 C   0  0  0  0  0  0  0  0  0  0  0  0
    1.1611    1.7684   -0.4061 C   0  0  0  0  0  0  0  0  0  0  0  0
   -1.5551    1.5542    1.0620 C   0  0  0  0  0  0  0  0  0  0  0  0
    2.5445    1.6958   -0.5263 C   0  0  0  0  0  0  0  0  0  0  0  0
   -3.1187   -0.2524   -0.3783 C   0  0  0  0  0  0  0  0  0  0  0  0
    2.4413   -0.5518    0.2452 C   0  0  0  0  0  0  0  0  0  0  0  0
   -2.9421    1.5601    1.2093 C   0  0  0  0  0  0  0  0  0  0  0  0
    3.2045    0.5171   -0.1965 C   0  0  0  0  0  0  0  0  0  0  0  0
   -3.7240    0.6569    0.4891 C   0  0  0  0  0  0  0  0  0  0  0  0
    3.0383   -1.8286    0.6150 C   0  0  0  0  0  0  0  0  0  0  0  0
   -4.1133   -2.4101   -0.4826 C   0  0  0  0  0  0  0  0  0  0  0  0
    0.6290    2.6797   -0.6644 H   0  0  0  0  0  0  0  0  0  0  0  0
   -0.9639    2.2630    1.6371 H   0  0  0  0  0  0  0  0  0  0  0  0
   -3.3989    2.2740    1.8900 H   0  0  0  0  0  0  0  0  0  0  0  0
    2.7469    3.6796   -1.2192 H   0  0  0  0  0  0  0  0  0  0  0  0
    4.2535    2.7961   -1.0781 H   0  0  0  0  0  0  0  0  0  0  0  0
   -4.7734   -2.9815   -1.1410 H   0  0  0  0  0  0  0  0  0  0  0  0
   -4.6069   -2.2885    0.4865 H   0  0  0  0  0  0  0  0  0  0  0  0
   -3.1786   -2.9659   -0.3580 H   0  0  0  0  0  0  0  0  0  0  0  0
    2.9779   -3.7127    0.1124 H   0  0  0  0  0  0  0  0  0  0  0  0
  1 18  1  0  0  0  0
  2 19  1  0  0  0  0
  3 11  1  0  0  0  0
  4 15  1  0  0  0  0
  4 21  1  0  0  0  0
  5 20  1  0  0  0  0
  5 30  1  0  0  0  0
  6 20  2  0  0  0  0
  7 10  2  0  0  0  0
  7 16  1  0  0  0  0
  8 14  1  0  0  0  0
  8 25  1  0  0  0  0
  8 26  1  0  0  0  0
  9 10  1  0  0  0  0
  9 11  2  0  0  0  0
  9 13  1  0  0  0  0
 10 12  1  0  0  0  0
 11 15  1  0  0  0  0
 12 14  2  0  0  0  0
 12 22  1  0  0  0  0
 13 17  2  0  0  0  0
 13 23  1  0  0  0  0
 14 18  1  0  0  0  0
 15 19  2  0  0  0  0
 16 18  2  0  0  0  0
 16 20  1  0  0  0  0
 17 19  1  0  0  0  0
 17 24  1  0  0  0  0
 21 27  1  0  0  0  0
 21 28  1  0  0  0  0
 21 29  1  0  0  0  0
M  END
> <PUBCHEM_COMPOUND_CID>
25181547

> <PUBCHEM_CONFORMER_RMSD>
0.6

> <PUBCHEM_CONFORMER_DIVERSEORDER>
1
11
7
8
9
2
10
3
4
6
5

> <PUBCHEM_MMFF94_PARTIAL_CHARGES>
26
1 -0.18
10 0.31
11 0.19
12 -0.15
13 -0.15
14 0.1
15 0.08
16 0.4
17 -0.15
18 0.18
19 0.18
2 -0.18
20 0.63
21 0.28
22 0.15
23 0.15
24 0.15
25 0.4
26 0.4
3 -0.19
30 0.5
4 -0.36
5 -0.65
6 -0.57
7 -0.62
8 -0.9

> <PUBCHEM_EFFECTIVE_ROTOR_COUNT>
3

> <PUBCHEM_PHARMACOPHORE_FEATURES>
9
1 4 acceptor
1 5 acceptor
1 6 acceptor
1 7 acceptor
1 8 cation
1 8 donor
3 5 6 20 anion
6 7 10 12 14 16 18 rings
6 9 11 13 15 17 19 rings

> <PUBCHEM_HEAVY_ATOM_COUNT>
21

> <PUBCHEM_ATOM_DEF_STEREO_COUNT>
0

> <PUBCHEM_ATOM_UDEF_STEREO_COUNT>
0

> <PUBCHEM_BOND_DEF_STEREO_COUNT>
0

> <PUBCHEM_BOND_UDEF_STEREO_COUNT>
0

> <PUBCHEM_ISOTOPIC_ATOM_COUNT>
0

> <PUBCHEM_COMPONENT_COUNT>
1

> <PUBCHEM_CACTVS_TAUTO_COUNT>
2

> <PUBCHEM_CONFORMER_ID>
01803D6B00000001

> <PUBCHEM_MMFF94_ENERGY>
83.4229

> <PUBCHEM_FEATURE_SELFOVERLAP>
45.732

> <PUBCHEM_SHAPE_FINGERPRINT>
10062212 137 18201714068429035023
10616163 171 18343304803171548367
10759866 29 18340774835568832133
11578080 2 18125969789806774513
12107183 9 17907020569349870393
12236239 1 18342181063443111033
12553582 1 18118401744314827906
13009979 54 18200597995101287370
13167823 11 18412267254870698781
13583140 156 18187662305483864737
13631057 29 18050568748665081551
13760787 19 18341337777027238309
14576447 43 18337949094906581470
15099037 8 18411695483049274291
15375462 189 18342462572953614113
15442244 35 18267306434741751392
16752209 62 17704068521338523655
17349148 13 18187639245535271256
17492 89 18412829075259147831
17818456 19 17913216360148442425
1813 80 18044947770609552526
18681886 176 18131350851942852516
19050596 39 18343862212569100379
19422 9 18412261748706885483
200 152 18411701031978254537
20281475 54 18411131455143379659
20645477 70 18186522072685248402
21054139 6 18266175209534332838
21267235 1 18341062868665113533
2255824 54 18335426798485338212
23402539 116 17775846834970228269
23463225 33 18342459197024637341
23557571 272 16916796123534516777
23559900 14 17203057287604252220
23598291 2 18339362950958938390
312423 11 18341338859010830767
474 4 18189058771050538412
5104073 3 18272369814810486473
58051976 100 18413110567462583445
633830 44 17167861950616926513
67856867 119 18339355366073567928
7097593 13 18197778795389703451
77492 1 18342179963973674777
7970288 3 17826509964183270722
8272917 22 18335990791508839148
9709674 26 18335709346555240834
9981440 41 17905321089351136240

> <PUBCHEM_SHAPE_MULTIPOLES>
401.07
10.01
2.61
1.08
3.18
0.87
0.1
1.26
0.5
-1.33
-0.11
0.12
0.07
-2.33

> <PUBCHEM_SHAPE_SELFOVERLAP>
855.269

> <PUBCHEM_SHAPE_VOLUME>
226.8

> <PUBCHEM_COORDINATE_TYPE>
2
5
10

$$$$
