27447
  -OEChem-07202400213D

 41 43  0     1  0  0  0  0  0999 V2000
   -0.4368    1.2732    1.0164 S   0  0  0  0  0  0  0  0  0  0  0  0
   -2.3371   -2.5512   -0.8209 O   0  0  0  0  0  0  0  0  0  0  0  0
    2.1365   -2.0834    1.5679 O   0  0  0  0  0  0  0  0  0  0  0  0
   -4.0687    0.1054   -2.0602 O   0  0  0  0  0  0  0  0  0  0  0  0
   -5.4246   -0.5153   -0.3262 O   0  0  0  0  0  0  0  0  0  0  0  0
   -2.2922   -0.5056    0.3513 N   0  0  0  0  0  0  0  0  0  0  0  0
    0.6150   -1.4062   -0.0452 N   0  0  0  0  0  0  0  0  0  0  0  0
    4.0509   -2.4041   -0.3977 N   0  0  0  0  0  0  0  0  0  0  0  0
   -1.2603   -0.3003    1.3512 C   0  0  1  0  0  0  0  0  0  0  0  0
   -0.5855   -1.5645    0.7752 C   0  0  1  0  0  0  0  0  0  0  0  0
   -1.8896   -1.7287   -0.0564 C   0  0  0  0  0  0  0  0  0  0  0  0
   -3.2674    0.3985    0.0765 C   0  0  0  0  0  0  0  0  0  0  0  0
   -1.9657    2.2463    1.2309 C   0  0  0  0  0  0  0  0  0  0  0  0
   -3.1839    1.6808    0.5042 C   0  0  0  0  0  0  0  0  0  0  0  0
    1.8981   -1.6842    0.4293 C   0  0  0  0  0  0  0  0  0  0  0  0
   -4.2610    2.7210    0.3101 C   0  0  0  0  0  0  0  0  0  0  0  0
   -4.3857   -0.0604   -0.7609 C   0  0  0  0  0  0  0  0  0  0  0  0
    2.9849   -1.4201   -0.6072 C   0  0  1  0  0  0  0  0  0  0  0  0
    3.4882    0.0052   -0.5106 C   0  0  0  0  0  0  0  0  0  0  0  0
    2.8713    0.9906   -1.2607 C   0  0  0  0  0  0  0  0  0  0  0  0
    4.5536    0.2892    0.3252 C   0  0  0  0  0  0  0  0  0  0  0  0
    3.3350    2.3031   -1.1720 C   0  0  0  0  0  0  0  0  0  0  0  0
    5.0171    1.6017    0.4141 C   0  0  0  0  0  0  0  0  0  0  0  0
    4.4078    2.6088   -0.3344 C   0  0  0  0  0  0  0  0  0  0  0  0
   -1.6285   -0.4221    2.3768 H   0  0  0  0  0  0  0  0  0  0  0  0
   -0.4751   -2.3698    1.5121 H   0  0  0  0  0  0  0  0  0  0  0  0
    0.5256   -1.0677   -1.0003 H   0  0  0  0  0  0  0  0  0  0  0  0
   -1.7439    3.2506    0.8545 H   0  0  0  0  0  0  0  0  0  0  0  0
   -2.1870    2.3314    2.3004 H   0  0  0  0  0  0  0  0  0  0  0  0
   -5.1647    2.3213   -0.1580 H   0  0  0  0  0  0  0  0  0  0  0  0
   -3.8919    3.5337   -0.3241 H   0  0  0  0  0  0  0  0  0  0  0  0
   -4.5556    3.1410    1.2777 H   0  0  0  0  0  0  0  0  0  0  0  0
    2.5808   -1.5967   -1.6120 H   0  0  0  0  0  0  0  0  0  0  0  0
    4.7577   -2.2996   -1.1255 H   0  0  0  0  0  0  0  0  0  0  0  0
    3.6728   -3.3443   -0.5118 H   0  0  0  0  0  0  0  0  0  0  0  0
   -4.7899   -0.1889   -2.6566 H   0  0  0  0  0  0  0  0  0  0  0  0
    2.0356    0.7633   -1.9159 H   0  0  0  0  0  0  0  0  0  0  0  0
    5.0369   -0.4683    0.9344 H   0  0  0  0  0  0  0  0  0  0  0  0
    2.8602    3.0873   -1.7542 H   0  0  0  0  0  0  0  0  0  0  0  0
    5.8496    1.8409    1.0694 H   0  0  0  0  0  0  0  0  0  0  0  0
    4.7678    3.6310   -0.2642 H   0  0  0  0  0  0  0  0  0  0  0  0
  1  9  1  0  0  0  0
  1 13  1  0  0  0  0
  2 11  2  0  0  0  0
  3 15  2  0  0  0  0
  4 17  1  0  0  0  0
  4 36  1  0  0  0  0
  5 17  2  0  0  0  0
  6  9  1  0  0  0  0
  6 11  1  0  0  0  0
  6 12  1  0  0  0  0
  7 10  1  0  0  0  0
  7 15  1  0  0  0  0
  7 27  1  0  0  0  0
  8 18  1  0  0  0  0
  8 34  1  0  0  0  0
  8 35  1  0  0  0  0
  9 10  1  0  0  0  0
  9 25  1  0  0  0  0
 10 11  1  0  0  0  0
 10 26  1  0  0  0  0
 12 14  2  0  0  0  0
 12 17  1  0  0  0  0
 13 14  1  0  0  0  0
 13 28  1  0  0  0  0
 13 29  1  0  0  0  0
 14 16  1  0  0  0  0
 15 18  1  0  0  0  0
 16 30  1  0  0  0  0
 16 31  1  0  0  0  0
 16 32  1  0  0  0  0
 18 19  1  0  0  0  0
 18 33  1  0  0  0  0
 19 20  2  0  0  0  0
 19 21  1  0  0  0  0
 20 22  1  0  0  0  0
 20 37  1  0  0  0  0
 21 23  2  0  0  0  0
 21 38  1  0  0  0  0
 22 24  2  0  0  0  0
 22 39  1  0  0  0  0
 23 24  1  0  0  0  0
 23 40  1  0  0  0  0
 24 41  1  0  0  0  0
M  END
> <PUBCHEM_COMPOUND_CID>
27447

> <PUBCHEM_CONFORMER_RMSD>
0.8

> <PUBCHEM_CONFORMER_DIVERSEORDER>
1
4
18
15
10
13
16
19
6
14
12
22
5
3
20
8
11
21
23
17
24
2
7
9

> <PUBCHEM_MMFF94_PARTIAL_CHARGES>
33
1 -0.45
10 0.28
11 0.58
12 0.12
13 0.37
14 -0.28
15 0.57
16 0.14
17 0.71
18 0.47
19 -0.14
2 -0.57
20 -0.15
21 -0.15
22 -0.15
23 -0.15
24 -0.15
27 0.37
3 -0.57
34 0.36
35 0.36
36 0.5
37 0.15
38 0.15
39 0.15
4 -0.65
40 0.15
41 0.15
5 -0.57
6 -0.39
7 -0.65
8 -0.99
9 0.44

> <PUBCHEM_EFFECTIVE_ROTOR_COUNT>
5.6

> <PUBCHEM_PHARMACOPHORE_FEATURES>
11
1 2 acceptor
1 3 acceptor
1 4 acceptor
1 5 acceptor
1 7 donor
1 8 cation
1 8 donor
3 4 5 17 anion
4 6 9 10 11 rings
6 1 6 9 12 13 14 rings
6 19 20 21 22 23 24 rings

> <PUBCHEM_HEAVY_ATOM_COUNT>
24

> <PUBCHEM_ATOM_DEF_STEREO_COUNT>
3

> <PUBCHEM_ATOM_UDEF_STEREO_COUNT>
0

> <PUBCHEM_BOND_DEF_STEREO_COUNT>
0

> <PUBCHEM_BOND_UDEF_STEREO_COUNT>
0

> <PUBCHEM_ISOTOPIC_ATOM_COUNT>
0

> <PUBCHEM_COMPONENT_COUNT>
1

> <PUBCHEM_CACTVS_TAUTO_COUNT>
2

> <PUBCHEM_CONFORMER_ID>
00006B3700000001

> <PUBCHEM_MMFF94_ENERGY>
68.8121

> <PUBCHEM_FEATURE_SELFOVERLAP>
56.135

> <PUBCHEM_SHAPE_FINGERPRINT>
10498660 4 18270407225473517680
10928967 22 11239737265792125508
11370993 70 18335985354470892240
12166972 35 18342454790894776154
12633257 1 16732976592038885816
12788726 201 17561092367106045129
13583140 156 17022624186558906257
13617811 41 18337941398953577493
14251764 38 18336269037008331492
14790565 3 18199479779350321537
14931854 50 18342179985485798740
15196674 1 18340771442302042601
17492 89 18411708694517298626
17959699 21 18410855451591026816
17980427 23 18125421052405777818
18186145 218 17895762789788411571
18335252 114 17759238497268981789
20511986 3 18340189852338451044
20715895 44 18265892458578113425
21033648 144 18259983751635537359
21033648 29 16588025654565941645
21049683 271 17326899981156983007
21095088 737 18342461456204088417
21864079 5 18339086960497339393
22393880 68 18271539675390363228
22749437 52 18409176527833142264
23227448 37 18410296921290808917
23557571 272 17632577128549684146
23559900 14 17915739782505166482
474 4 18113340838373277906
508706 21 17604148116767479436
56633871 153 8646498422716094545
5895379 119 17986116214916559040
6034566 193 17171829138709383604
6328613 192 18042415793622317644
633830 44 18265616490002476019
67856867 119 18339635655818458178
6786 2 13248953924626005931
9709674 26 18270974465914567014
9981440 41 18120094137944799578

> <PUBCHEM_SHAPE_MULTIPOLES>
459.34
11.07
3.16
1.3
0.66
0.34
-0.14
4.38
-2.61
1.02
0.15
-0.39
0.08
-1.17

> <PUBCHEM_SHAPE_SELFOVERLAP>
971.302

> <PUBCHEM_SHAPE_VOLUME>
258.5

> <PUBCHEM_COORDINATE_TYPE>
2
5
10

$$$$
