3014032
  -OEChem-07202400463D

 57 57  0     1  0  0  0  0  0999 V2000
    5.7972    1.4967    0.4678 O   0  0  0  0  0  0  0  0  0  0  0  0
    3.9754   -0.6036   -0.1532 N   0  0  0  0  0  0  0  0  0  0  0  0
    4.0866   -0.0708    1.2116 C   0  0  0  0  0  0  0  0  0  0  0  0
    5.2768   -0.4991   -0.8282 C   0  0  0  0  0  0  0  0  0  0  0  0
    3.5135   -1.9903   -0.1316 C   0  0  0  0  0  0  0  0  0  0  0  0
    4.5665    1.3854    1.1923 C   0  0  2  0  0  0  0  0  0  0  0  0
    5.7302    0.9644   -0.8592 C   0  0  2  0  0  0  0  0  0  0  0  0
    2.1313   -2.1226    0.5103 C   0  0  0  0  0  0  0  0  0  0  0  0
    1.0529   -1.3075   -0.2103 C   0  0  0  0  0  0  0  0  0  0  0  0
   -0.3235   -1.5271    0.4236 C   0  0  0  0  0  0  0  0  0  0  0  0
   -1.3961   -0.6912   -0.2781 C   0  0  0  0  0  0  0  0  0  0  0  0
   -2.7899   -0.8489    0.3368 C   0  0  0  0  0  0  0  0  0  0  0  0
    3.5175    2.3651    0.6681 C   0  0  0  0  0  0  0  0  0  0  0  0
    7.1192    1.0901   -1.4732 C   0  0  0  0  0  0  0  0  0  0  0  0
   -3.8766   -0.0706   -0.4099 C   0  0  0  0  0  0  0  0  0  0  0  0
   -5.2558   -0.3225    0.2053 C   0  0  0  0  0  0  0  0  0  0  0  0
   -6.3822    0.4493   -0.4884 C   0  0  0  0  0  0  0  0  0  0  0  0
   -7.7489    0.2553    0.1720 C   0  0  0  0  0  0  0  0  0  0  0  0
   -8.8204    1.1032   -0.5152 C   0  0  0  0  0  0  0  0  0  0  0  0
  -10.1737    0.9448    0.1594 C   0  0  0  0  0  0  0  0  0  0  0  0
    4.7983   -0.6737    1.7917 H   0  0  0  0  0  0  0  0  0  0  0  0
    3.1300   -0.0819    1.7418 H   0  0  0  0  0  0  0  0  0  0  0  0
    5.1977   -0.8712   -1.8568 H   0  0  0  0  0  0  0  0  0  0  0  0
    6.0234   -1.1124   -0.3058 H   0  0  0  0  0  0  0  0  0  0  0  0
    3.4518   -2.3705   -1.1593 H   0  0  0  0  0  0  0  0  0  0  0  0
    4.2207   -2.6361    0.4051 H   0  0  0  0  0  0  0  0  0  0  0  0
    4.7992    1.6792    2.2228 H   0  0  0  0  0  0  0  0  0  0  0  0
    5.0395    1.5693   -1.4583 H   0  0  0  0  0  0  0  0  0  0  0  0
    1.8490   -3.1830    0.4589 H   0  0  0  0  0  0  0  0  0  0  0  0
    2.1480   -1.8868    1.5795 H   0  0  0  0  0  0  0  0  0  0  0  0
    1.0196   -1.5947   -1.2682 H   0  0  0  0  0  0  0  0  0  0  0  0
    1.2965   -0.2396   -0.1717 H   0  0  0  0  0  0  0  0  0  0  0  0
   -0.5915   -2.5890    0.3691 H   0  0  0  0  0  0  0  0  0  0  0  0
   -0.2871   -1.2556    1.4855 H   0  0  0  0  0  0  0  0  0  0  0  0
   -1.1120    0.3680   -0.2468 H   0  0  0  0  0  0  0  0  0  0  0  0
   -1.4368   -0.9765   -1.3367 H   0  0  0  0  0  0  0  0  0  0  0  0
   -3.0537   -1.9139    0.3465 H   0  0  0  0  0  0  0  0  0  0  0  0
   -2.7607   -0.5209    1.3832 H   0  0  0  0  0  0  0  0  0  0  0  0
    2.6408    2.3812    1.3236 H   0  0  0  0  0  0  0  0  0  0  0  0
    3.1760    2.1107   -0.3399 H   0  0  0  0  0  0  0  0  0  0  0  0
    3.9343    3.3765    0.6171 H   0  0  0  0  0  0  0  0  0  0  0  0
    7.1370    0.7097   -2.4990 H   0  0  0  0  0  0  0  0  0  0  0  0
    7.8616    0.5429   -0.8816 H   0  0  0  0  0  0  0  0  0  0  0  0
    7.4373    2.1382   -1.4839 H   0  0  0  0  0  0  0  0  0  0  0  0
   -3.8874   -0.3707   -1.4645 H   0  0  0  0  0  0  0  0  0  0  0  0
   -3.6466    1.0009   -0.3795 H   0  0  0  0  0  0  0  0  0  0  0  0
   -5.2316   -0.0415    1.2657 H   0  0  0  0  0  0  0  0  0  0  0  0
   -5.4820   -1.3953    0.1675 H   0  0  0  0  0  0  0  0  0  0  0  0
   -6.1314    1.5175   -0.4875 H   0  0  0  0  0  0  0  0  0  0  0  0
   -6.4378    0.1384   -1.5390 H   0  0  0  0  0  0  0  0  0  0  0  0
   -7.6851    0.5330    1.2311 H   0  0  0  0  0  0  0  0  0  0  0  0
   -8.0295   -0.8040    0.1314 H   0  0  0  0  0  0  0  0  0  0  0  0
   -8.5312    2.1605   -0.4924 H   0  0  0  0  0  0  0  0  0  0  0  0
   -8.9056    0.8126   -1.5687 H   0  0  0  0  0  0  0  0  0  0  0  0
  -10.1295    1.2604    1.2067 H   0  0  0  0  0  0  0  0  0  0  0  0
  -10.5078   -0.0972    0.1280 H   0  0  0  0  0  0  0  0  0  0  0  0
  -10.9246    1.5579   -0.3488 H   0  0  0  0  0  0  0  0  0  0  0  0
  1  6  1  0  0  0  0
  1  7  1  0  0  0  0
  2  3  1  0  0  0  0
  2  4  1  0  0  0  0
  2  5  1  0  0  0  0
  3  6  1  0  0  0  0
  3 21  1  0  0  0  0
  3 22  1  0  0  0  0
  4  7  1  0  0  0  0
  4 23  1  0  0  0  0
  4 24  1  0  0  0  0
  5  8  1  0  0  0  0
  5 25  1  0  0  0  0
  5 26  1  0  0  0  0
  6 13  1  0  0  0  0
  6 27  1  0  0  0  0
  7 14  1  0  0  0  0
  7 28  1  0  0  0  0
  8  9  1  0  0  0  0
  8 29  1  0  0  0  0
  8 30  1  0  0  0  0
  9 10  1  0  0  0  0
  9 31  1  0  0  0  0
  9 32  1  0  0  0  0
 10 11  1  0  0  0  0
 10 33  1  0  0  0  0
 10 34  1  0  0  0  0
 11 12  1  0  0  0  0
 11 35  1  0  0  0  0
 11 36  1  0  0  0  0
 12 15  1  0  0  0  0
 12 37  1  0  0  0  0
 12 38  1  0  0  0  0
 13 39  1  0  0  0  0
 13 40  1  0  0  0  0
 13 41  1  0  0  0  0
 14 42  1  0  0  0  0
 14 43  1  0  0  0  0
 14 44  1  0  0  0  0
 15 16  1  0  0  0  0
 15 45  1  0  0  0  0
 15 46  1  0  0  0  0
 16 17  1  0  0  0  0
 16 47  1  0  0  0  0
 16 48  1  0  0  0  0
 17 18  1  0  0  0  0
 17 49  1  0  0  0  0
 17 50  1  0  0  0  0
 18 19  1  0  0  0  0
 18 51  1  0  0  0  0
 18 52  1  0  0  0  0
 19 20  1  0  0  0  0
 19 53  1  0  0  0  0
 19 54  1  0  0  0  0
 20 55  1  0  0  0  0
 20 56  1  0  0  0  0
 20 57  1  0  0  0  0
M  END
> <PUBCHEM_COMPOUND_CID>
3014032

> <PUBCHEM_CONFORMER_RMSD>
1.2

> <PUBCHEM_CONFORMER_DIVERSEORDER>
1
185
6
87
47
167
170
89
172
110
144
183
120
12
35
126
161
67
85
148
91
77
115
198
140
41
2
142
84
32
9
160
7
184
141
8
105
14
165
5
48
196
104
192
54
191
19
180
186
151
188
86
16
162
158
76
61
166
130
36
122
194
132
59
159
179
22
34
66
112
13
98
114
187
101
123
23
174
37
139
135
178
43
44
133
96
127
111
53
92
20
113
39
24
190
46
197
72
93
78
171
109
200
103
80
134
25
119
199
62
131
108
195
50
138
164
100
156
18
58
169
117
38
94
82
31
21
27
71
146
45
68
73
26
128
11
176
149
60
136
75
81
173
4
88
177
51
193
63
42
147
40
79
118
99
106
182
163
168
157
152
57
74
55
3
30
95
10
181
155
124
143
107
121
175
150
83
15
97
49
29
129
125
102
28
52
154
189
116
65
137
33
153
17
64
70
90
56
145
69

> <PUBCHEM_MMFF94_PARTIAL_CHARGES>
7
1 -0.56
2 -0.81
3 0.27
4 0.27
5 0.27
6 0.28
7 0.28

> <PUBCHEM_EFFECTIVE_ROTOR_COUNT>
12.2

> <PUBCHEM_PHARMACOPHORE_FEATURES>
4
1 1 acceptor
1 2 cation
1 20 hydrophobe
6 1 2 3 4 6 7 rings

> <PUBCHEM_HEAVY_ATOM_COUNT>
20

> <PUBCHEM_ATOM_DEF_STEREO_COUNT>
0

> <PUBCHEM_ATOM_UDEF_STEREO_COUNT>
2

> <PUBCHEM_BOND_DEF_STEREO_COUNT>
0

> <PUBCHEM_BOND_UDEF_STEREO_COUNT>
0

> <PUBCHEM_ISOTOPIC_ATOM_COUNT>
0

> <PUBCHEM_COMPONENT_COUNT>
1

> <PUBCHEM_CACTVS_TAUTO_COUNT>
1

> <PUBCHEM_CONFORMER_ID>
002DFD9000000001

> <PUBCHEM_MMFF94_ENERGY>
12.7475

> <PUBCHEM_FEATURE_SELFOVERLAP>
20.297

> <PUBCHEM_SHAPE_FINGERPRINT>
10 15 17240484710964056455
10066227 49 9079117770182415985
10165383 225 18259706714430928486
10638233 991 17918275346850319689
11638347 137 15719388404305741339
11991303 11 16701727329237271487
125118 31 18261109622290160717
13533116 47 17822847568223214459
13617811 41 15123791782303865233
13685833 64 9295288348397351367
13885169 127 9151180853378439207
14142895 15 18412260675761679327
14251764 18 13984664750837532475
14528608 73 18201715184646018526
14598715 104 17604414216869014045
15183329 4 15482675684613547491
15188451 53 8574716801332026158
155225 6 18044661042667131084
15690457 1 10665232566676222593
16120349 18 18413100663958991149
1754911 235 18131630080952374189
18335252 114 17989209239682802628
20157964 124 18342455920128484499
20554085 129 17167578281154144771
20721686 146 17415262100796854840
21095123 145 17704072916245757607
221357 26 17989494013621924480
22224240 67 17458063751602661083
28498 318 11095881554444840011
33532 11 9151167658948417809
34797466 226 18059858329487885487
4073 2 18113341921011823619
444735 82 18260831462954453821
445580 126 18271794736149119442
5758199 1 18187083937056708579
58260988 393 14996550799295630188
59521099 67 16415476048224790136
59682541 35 17530972384999224017
59682541 52 17132122325219144270
6438161 24 11743839148901087975
67123 10 18411418407211071791

> <PUBCHEM_SHAPE_MULTIPOLES>
400.74
28.83
2.04
1.05
68.44
0.02
-0.02
-16.7
-4.6
-3.02
0.31
-1.72
-0.28
0.34

> <PUBCHEM_SHAPE_SELFOVERLAP>
750.183

> <PUBCHEM_SHAPE_VOLUME>
251.4

> <PUBCHEM_COORDINATE_TYPE>
2
5
10

$$$$
