3049
  -OEChem-07192422083D

 38 39  0     0  0  0  0  0  0999 V2000
    3.9354    2.9061    0.4362 O   0  0  0  0  0  0  0  0  0  0  0  0
   -3.9354    2.9061   -0.4362 O   0  0  0  0  0  0  0  0  0  0  0  0
    0.6862   -1.6075   -0.2608 C   0  0  0  0  0  0  0  0  0  0  0  0
   -0.6861   -1.6074    0.2608 C   0  0  0  0  0  0  0  0  0  0  0  0
    1.5461   -0.4143   -0.0768 C   0  0  0  0  0  0  0  0  0  0  0  0
   -1.5460   -0.4143    0.0769 C   0  0  0  0  0  0  0  0  0  0  0  0
    1.2472   -2.6650   -0.8857 C   0  0  0  0  0  0  0  0  0  0  0  0
   -1.2475   -2.6648    0.8860 C   0  0  0  0  0  0  0  0  0  0  0  0
    1.5626    0.5568   -1.0588 C   0  0  0  0  0  0  0  0  0  0  0  0
   -1.5626    0.5569    1.0588 C   0  0  0  0  0  0  0  0  0  0  0  0
    2.3055   -0.3069    1.0717 C   0  0  0  0  0  0  0  0  0  0  0  0
   -2.3054   -0.3070   -1.0717 C   0  0  0  0  0  0  0  0  0  0  0  0
    2.3713    1.6801   -0.8854 C   0  0  0  0  0  0  0  0  0  0  0  0
   -2.3711    1.6801    0.8854 C   0  0  0  0  0  0  0  0  0  0  0  0
    3.1138    0.8165    1.2452 C   0  0  0  0  0  0  0  0  0  0  0  0
   -3.1138    0.8163   -1.2452 C   0  0  0  0  0  0  0  0  0  0  0  0
    3.1469    1.8099    0.2665 C   0  0  0  0  0  0  0  0  0  0  0  0
   -3.1469    1.8099   -0.2667 C   0  0  0  0  0  0  0  0  0  0  0  0
    2.6424   -2.7760   -1.4179 C   0  0  0  0  0  0  0  0  0  0  0  0
   -2.6426   -2.7754    1.4180 C   0  0  0  0  0  0  0  0  0  0  0  0
    0.6465   -3.5602   -1.0418 H   0  0  0  0  0  0  0  0  0  0  0  0
   -0.6469   -3.5599    1.0421 H   0  0  0  0  0  0  0  0  0  0  0  0
    0.9643    0.4666   -1.9613 H   0  0  0  0  0  0  0  0  0  0  0  0
   -0.9642    0.4667    1.9613 H   0  0  0  0  0  0  0  0  0  0  0  0
    2.2871   -1.0738    1.8411 H   0  0  0  0  0  0  0  0  0  0  0  0
   -2.2871   -1.0740   -1.8411 H   0  0  0  0  0  0  0  0  0  0  0  0
    2.3880    2.4469   -1.6553 H   0  0  0  0  0  0  0  0  0  0  0  0
   -2.3878    2.4470    1.6552 H   0  0  0  0  0  0  0  0  0  0  0  0
    3.7155    0.9122    2.1449 H   0  0  0  0  0  0  0  0  0  0  0  0
   -3.7155    0.9120   -2.1450 H   0  0  0  0  0  0  0  0  0  0  0  0
    3.1494   -3.6167   -0.9333 H   0  0  0  0  0  0  0  0  0  0  0  0
    2.6053   -2.9805   -2.4928 H   0  0  0  0  0  0  0  0  0  0  0  0
    3.2628   -1.8895   -1.2726 H   0  0  0  0  0  0  0  0  0  0  0  0
   -2.6057   -2.9796    2.4930 H   0  0  0  0  0  0  0  0  0  0  0  0
   -3.2630   -1.8890    1.2724 H   0  0  0  0  0  0  0  0  0  0  0  0
   -3.1496   -3.6163    0.9336 H   0  0  0  0  0  0  0  0  0  0  0  0
    3.8351    3.4889   -0.3360 H   0  0  0  0  0  0  0  0  0  0  0  0
   -3.8350    3.4889    0.3360 H   0  0  0  0  0  0  0  0  0  0  0  0
  1 17  1  0  0  0  0
  1 37  1  0  0  0  0
  2 18  1  0  0  0  0
  2 38  1  0  0  0  0
  3  4  1  0  0  0  0
  3  5  1  0  0  0  0
  3  7  2  3  0  0  0
  4  6  1  0  0  0  0
  4  8  2  3  0  0  0
  5  9  2  0  0  0  0
  5 11  1  0  0  0  0
  6 10  2  0  0  0  0
  6 12  1  0  0  0  0
  7 19  1  0  0  0  0
  7 21  1  0  0  0  0
  8 20  1  0  0  0  0
  8 22  1  0  0  0  0
  9 13  1  0  0  0  0
  9 23  1  0  0  0  0
 10 14  1  0  0  0  0
 10 24  1  0  0  0  0
 11 15  2  0  0  0  0
 11 25  1  0  0  0  0
 12 16  2  0  0  0  0
 12 26  1  0  0  0  0
 13 17  2  0  0  0  0
 13 27  1  0  0  0  0
 14 18  2  0  0  0  0
 14 28  1  0  0  0  0
 15 17  1  0  0  0  0
 15 29  1  0  0  0  0
 16 18  1  0  0  0  0
 16 30  1  0  0  0  0
 19 31  1  0  0  0  0
 19 32  1  0  0  0  0
 19 33  1  0  0  0  0
 20 34  1  0  0  0  0
 20 35  1  0  0  0  0
 20 36  1  0  0  0  0
M  END
> <PUBCHEM_COMPOUND_CID>
3049

> <PUBCHEM_CONFORMER_RMSD>
0.6

> <PUBCHEM_CONFORMER_DIVERSEORDER>
1
3
2

> <PUBCHEM_MMFF94_PARTIAL_CHARGES>
32
1 -0.53
10 -0.15
11 -0.15
12 -0.15
13 -0.15
14 -0.15
15 -0.15
16 -0.15
17 0.08
18 0.08
19 0.14
2 -0.53
20 0.14
21 0.15
22 0.15
23 0.15
24 0.15
25 0.15
26 0.15
27 0.15
28 0.15
29 0.15
3 -0.03
30 0.15
37 0.45
38 0.45
4 -0.03
5 0.03
6 0.03
7 -0.29
8 -0.29
9 -0.15

> <PUBCHEM_EFFECTIVE_ROTOR_COUNT>
3

> <PUBCHEM_PHARMACOPHORE_FEATURES>
6
1 1 donor
1 19 hydrophobe
1 2 donor
1 20 hydrophobe
6 5 9 11 13 15 17 rings
6 6 10 12 14 16 18 rings

> <PUBCHEM_HEAVY_ATOM_COUNT>
20

> <PUBCHEM_ATOM_DEF_STEREO_COUNT>
0

> <PUBCHEM_ATOM_UDEF_STEREO_COUNT>
0

> <PUBCHEM_BOND_DEF_STEREO_COUNT>
0

> <PUBCHEM_BOND_UDEF_STEREO_COUNT>
2

> <PUBCHEM_ISOTOPIC_ATOM_COUNT>
0

> <PUBCHEM_COMPONENT_COUNT>
1

> <PUBCHEM_CACTVS_TAUTO_COUNT>
3

> <PUBCHEM_CONFORMER_ID>
00000BE900000001

> <PUBCHEM_MMFF94_ENERGY>
64.5574

> <PUBCHEM_FEATURE_SELFOVERLAP>
30.447

> <PUBCHEM_SHAPE_FINGERPRINT>
10162869 55 17764052533798702139
10165383 225 17761825840885487629
11221954 11 18410571790423195363
11640471 11 18338502101762974432
12633257 1 17970044700565985994
13134695 92 17908422450833160406
13140716 1 18408325466851341234
13149001 5 18123493599436895503
13294875 104 17897725357967541666
13464514 151 18269846332772339238
13764800 53 18339931531472073235
14223421 5 18337401537910448083
14250199 8 18056477253580015365
14614273 12 18268441311172551219
14713325 29 16959346309386865750
14787075 74 18341323475308304097
15295992 7 18191882123541498483
15490181 8 18410852153003642694
15852999 172 18337655477835817787
16945 1 18195815054774594754
17980427 23 17910917354411971066
18186145 218 18119806920301141661
18981168 100 18338817657299748199
19765921 60 18268694053282002577
20510252 161 18122347040805320202
20600515 1 17903376818228890510
20715895 44 17895737583416454287
21041028 32 16533982188523647107
21524375 3 18338782477222451267
22907989 373 18047188845478514837
23557571 272 17970361510091609743
23558518 356 18259989296707711851
23559900 14 18201149954560393578
2748010 2 18338813272222834038
3060560 45 17905039258102700655
3250762 1 18338535078517007622
350125 39 18266481899784405922
4340502 62 18261388915649954949
474 4 18338788997310088169
49207404 50 18189919547100190017
6049 1 18266481886820408679
633830 44 18196083349235068061
7097593 13 17749934614436756274
7364860 26 18058163925875951590
81228 2 17897185678590028787
84936 182 18199739267666750641
90316 7 17689716784691954482
9709674 26 18412544297293921783
9981440 41 18200010958850041882

> <PUBCHEM_SHAPE_MULTIPOLES>
399.85
6.32
3.77
1.4
0
0.88
0
-4.74
0
0
0
0
0.38
1.77

> <PUBCHEM_SHAPE_SELFOVERLAP>
858.228

> <PUBCHEM_SHAPE_VOLUME>
222.6

> <PUBCHEM_COORDINATE_TYPE>
2
5
10

$$$$
