30772
  -OEChem-07202400573D

 36 37  0     1  0  0  0  0  0999 V2000
    0.3816   -1.1345   -0.2064 S   0  0  0  0  0  0  0  0  0  0  0  0
   -1.5853   -0.9725    0.5335 P   0  0  1  0  0  0  0  0  0  0  0  0
   -2.5414   -1.9174   -0.3854 O   0  0  0  0  0  0  0  0  0  0  0  0
   -1.6086   -1.4035    1.9787 O   0  0  0  0  0  0  0  0  0  0  0  0
   -2.0946    0.6867    0.1976 C   0  0  0  0  0  0  0  0  0  0  0  0
    1.3446    0.0924    0.7000 C   0  0  0  0  0  0  0  0  0  0  0  0
    2.7890    0.1022    0.2816 C   0  0  0  0  0  0  0  0  0  0  0  0
   -2.4893    1.5192    1.2441 C   0  0  0  0  0  0  0  0  0  0  0  0
   -2.1002    1.1608   -1.1134 C   0  0  0  0  0  0  0  0  0  0  0  0
   -2.3681   -3.3235   -0.3310 C   0  0  0  0  0  0  0  0  0  0  0  0
    3.1958    0.9300   -0.7567 C   0  0  0  0  0  0  0  0  0  0  0  0
    3.6983   -0.7163    0.9388 C   0  0  0  0  0  0  0  0  0  0  0  0
   -2.8907    2.8285    0.9788 C   0  0  0  0  0  0  0  0  0  0  0  0
   -2.5016    2.4702   -1.3785 C   0  0  0  0  0  0  0  0  0  0  0  0
   -2.8968    3.3039   -0.3323 C   0  0  0  0  0  0  0  0  0  0  0  0
   -3.3634   -3.9794   -1.2642 C   0  0  0  0  0  0  0  0  0  0  0  0
    4.5357    0.9392   -1.1448 C   0  0  0  0  0  0  0  0  0  0  0  0
    5.0381   -0.7069    0.5507 C   0  0  0  0  0  0  0  0  0  0  0  0
    5.4567    0.1209   -0.4911 C   0  0  0  0  0  0  0  0  0  0  0  0
    1.2630   -0.1139    1.7732 H   0  0  0  0  0  0  0  0  0  0  0  0
    0.9047    1.0838    0.5444 H   0  0  0  0  0  0  0  0  0  0  0  0
   -2.4876    1.1595    2.2686 H   0  0  0  0  0  0  0  0  0  0  0  0
   -1.8000    0.5182   -1.9359 H   0  0  0  0  0  0  0  0  0  0  0  0
   -1.3496   -3.5832   -0.6328 H   0  0  0  0  0  0  0  0  0  0  0  0
   -2.5315   -3.6682    0.6948 H   0  0  0  0  0  0  0  0  0  0  0  0
    2.4868    1.5708   -1.2733 H   0  0  0  0  0  0  0  0  0  0  0  0
    3.3833   -1.3655    1.7510 H   0  0  0  0  0  0  0  0  0  0  0  0
   -3.1983    3.4778    1.7933 H   0  0  0  0  0  0  0  0  0  0  0  0
   -2.5076    2.8401   -2.3997 H   0  0  0  0  0  0  0  0  0  0  0  0
   -3.2095    4.3233   -0.5389 H   0  0  0  0  0  0  0  0  0  0  0  0
   -3.2589   -5.0678   -1.2449 H   0  0  0  0  0  0  0  0  0  0  0  0
   -3.2178   -3.6283   -2.2912 H   0  0  0  0  0  0  0  0  0  0  0  0
   -4.3882   -3.7175   -0.9808 H   0  0  0  0  0  0  0  0  0  0  0  0
    4.8616    1.5835   -1.9561 H   0  0  0  0  0  0  0  0  0  0  0  0
    5.7555   -1.3443    1.0595 H   0  0  0  0  0  0  0  0  0  0  0  0
    6.4998    0.1280   -0.7933 H   0  0  0  0  0  0  0  0  0  0  0  0
  1  2  1  0  0  0  0
  1  6  1  0  0  0  0
  2  3  1  0  0  0  0
  2  4  2  0  0  0  0
  2  5  1  0  0  0  0
  3 10  1  0  0  0  0
  5  8  2  0  0  0  0
  5  9  1  0  0  0  0
  6  7  1  0  0  0  0
  6 20  1  0  0  0  0
  6 21  1  0  0  0  0
  7 11  2  0  0  0  0
  7 12  1  0  0  0  0
  8 13  1  0  0  0  0
  8 22  1  0  0  0  0
  9 14  2  0  0  0  0
  9 23  1  0  0  0  0
 10 16  1  0  0  0  0
 10 24  1  0  0  0  0
 10 25  1  0  0  0  0
 11 17  1  0  0  0  0
 11 26  1  0  0  0  0
 12 18  2  0  0  0  0
 12 27  1  0  0  0  0
 13 15  2  0  0  0  0
 13 28  1  0  0  0  0
 14 15  1  0  0  0  0
 14 29  1  0  0  0  0
 15 30  1  0  0  0  0
 16 31  1  0  0  0  0
 16 32  1  0  0  0  0
 16 33  1  0  0  0  0
 17 19  2  0  0  0  0
 17 34  1  0  0  0  0
 18 19  1  0  0  0  0
 18 35  1  0  0  0  0
 19 36  1  0  0  0  0
M  END
> <PUBCHEM_COMPOUND_CID>
30772

> <PUBCHEM_CONFORMER_RMSD>
0.8

> <PUBCHEM_CONFORMER_DIVERSEORDER>
1
9
14
10
38
17
29
13
32
30
24
16
5
31
15
22
6
33
37
34
25
12
23
26
11
18
8
35
21
36
7
27
2
20
28
19
3
4

> <PUBCHEM_MMFF94_PARTIAL_CHARGES>
28
1 -0.48
10 0.28
11 -0.15
12 -0.15
13 -0.15
14 -0.15
15 -0.15
17 -0.15
18 -0.15
19 -0.15
2 1.36
22 0.15
23 0.15
26 0.15
27 0.15
28 0.15
29 0.15
3 -0.55
30 0.15
34 0.15
35 0.15
36 0.15
4 -0.7
5 -0.14
6 0.37
7 -0.14
8 -0.15
9 -0.15

> <PUBCHEM_EFFECTIVE_ROTOR_COUNT>
6

> <PUBCHEM_PHARMACOPHORE_FEATURES>
2
6 5 8 9 13 14 15 rings
6 7 11 12 17 18 19 rings

> <PUBCHEM_HEAVY_ATOM_COUNT>
19

> <PUBCHEM_ATOM_DEF_STEREO_COUNT>
0

> <PUBCHEM_ATOM_UDEF_STEREO_COUNT>
1

> <PUBCHEM_BOND_DEF_STEREO_COUNT>
0

> <PUBCHEM_BOND_UDEF_STEREO_COUNT>
0

> <PUBCHEM_ISOTOPIC_ATOM_COUNT>
0

> <PUBCHEM_COMPONENT_COUNT>
1

> <PUBCHEM_CACTVS_TAUTO_COUNT>
1

> <PUBCHEM_CONFORMER_ID>
0000783400000001

> <PUBCHEM_MMFF94_ENERGY>
31.0332

> <PUBCHEM_FEATURE_SELFOVERLAP>
10.149

> <PUBCHEM_SHAPE_FINGERPRINT>
11045515 52 18047183335415366335
11101153 10 18048602809433087940
11552529 35 18412825806803989460
12788726 201 18336249224371869491
13004483 165 18197490947050959671
13583140 156 17703497862172331506
14251751 93 18334014969361749610
14508225 48 18196925798168806215
14910302 57 17988100944610036870
15842332 3 17968922124869372258
17539 30 18342165722363125503
1813 80 17768258156160746439
18785283 64 17618231607174076899
21426921 1 18412543240694803206
21524375 3 18189614939128728057
22907989 373 18340197591784785109
2306618 200 18202290220573971275
23419403 2 17200209728908895867
23557571 272 18131639984334419420
27216 239 17750526091500088793
3057174 1 17910382901872468703
5104073 3 18040716970610414400
59755656 520 18199470969834014857
70251023 43 18194400223843646746
7164475 11 18337946900352593878
7399639 24 17771614935247802496
7615 1 17968641788153602514

> <PUBCHEM_SHAPE_MULTIPOLES>
386.97
9.86
4.1
1.4
15.73
2.34
-0.13
-0.91
1.31
-8.53
1.28
-0.55
-0.08
-1.35

> <PUBCHEM_SHAPE_SELFOVERLAP>
772.061

> <PUBCHEM_SHAPE_VOLUME>
229

> <PUBCHEM_COORDINATE_TYPE>
2
5
10

$$$$
