3081363
  -OEChem-07202400473D

 44 46  0     0  0  0  0  0  0999 V2000
   -4.3373   -2.2357   -0.4876 Cl  0  0  0  0  0  0  0  0  0  0  0  0
    2.1061   -1.3943   -1.2598 O   0  0  0  0  0  0  0  0  0  0  0  0
   -0.5476    1.1156    0.9614 O   0  0  0  0  0  0  0  0  0  0  0  0
    2.1888   -0.2488    0.7506 N   0  0  0  0  0  0  0  0  0  0  0  0
    0.1083   -0.7991   -0.2826 N   0  0  0  0  0  0  0  0  0  0  0  0
   -2.0217   -0.2542   -0.2928 N   0  0  0  0  0  0  0  0  0  0  0  0
   -0.5866   -1.6158   -1.1425 N   0  0  0  0  0  0  0  0  0  0  0  0
   -1.8167   -1.3254   -1.1156 N   0  0  0  0  0  0  0  0  0  0  0  0
    3.4728    0.3640    0.5095 C   0  0  0  0  0  0  0  0  0  0  0  0
    4.4913   -0.6784    0.0407 C   0  0  0  0  0  0  0  0  0  0  0  0
    3.3407    1.5070   -0.4999 C   0  0  0  0  0  0  0  0  0  0  0  0
    5.8431   -0.0423   -0.2723 C   0  0  0  0  0  0  0  0  0  0  0  0
    4.6940    2.1396   -0.8138 C   0  0  0  0  0  0  0  0  0  0  0  0
    5.7087    1.0982   -1.2773 C   0  0  0  0  0  0  0  0  0  0  0  0
    1.7972   -0.3575    2.1530 C   0  0  0  0  0  0  0  0  0  0  0  0
    1.5128   -0.8667   -0.3115 C   0  0  0  0  0  0  0  0  0  0  0  0
    2.4680   -1.5369    2.8265 C   0  0  0  0  0  0  0  0  0  0  0  0
   -0.8010    0.1630    0.2425 C   0  0  0  0  0  0  0  0  0  0  0  0
   -3.3211    0.2713   -0.1252 C   0  0  0  0  0  0  0  0  0  0  0  0
   -4.4654   -0.5384   -0.1919 C   0  0  0  0  0  0  0  0  0  0  0  0
   -3.4766    1.6446    0.1143 C   0  0  0  0  0  0  0  0  0  0  0  0
   -5.7353    0.0132   -0.0230 C   0  0  0  0  0  0  0  0  0  0  0  0
   -4.7466    2.1963    0.2831 C   0  0  0  0  0  0  0  0  0  0  0  0
   -5.8760    1.3806    0.2144 C   0  0  0  0  0  0  0  0  0  0  0  0
    3.8398    0.7988    1.4491 H   0  0  0  0  0  0  0  0  0  0  0  0
    4.1992   -1.2027   -0.8696 H   0  0  0  0  0  0  0  0  0  0  0  0
    4.6274   -1.4514    0.8054 H   0  0  0  0  0  0  0  0  0  0  0  0
    2.6613    2.2742   -0.1081 H   0  0  0  0  0  0  0  0  0  0  0  0
    2.8965    1.1548   -1.4392 H   0  0  0  0  0  0  0  0  0  0  0  0
    6.5286   -0.8018   -0.6653 H   0  0  0  0  0  0  0  0  0  0  0  0
    6.2891    0.3391    0.6545 H   0  0  0  0  0  0  0  0  0  0  0  0
    5.0752    2.6471    0.0809 H   0  0  0  0  0  0  0  0  0  0  0  0
    4.5725    2.9061   -1.5874 H   0  0  0  0  0  0  0  0  0  0  0  0
    6.6840    1.5748   -1.4268 H   0  0  0  0  0  0  0  0  0  0  0  0
    5.3981    0.6937   -2.2485 H   0  0  0  0  0  0  0  0  0  0  0  0
    2.0096    0.5829    2.6722 H   0  0  0  0  0  0  0  0  0  0  0  0
    0.7237   -0.5410    2.2265 H   0  0  0  0  0  0  0  0  0  0  0  0
    2.2814   -2.4672    2.2797 H   0  0  0  0  0  0  0  0  0  0  0  0
    3.5509   -1.3955    2.8927 H   0  0  0  0  0  0  0  0  0  0  0  0
    2.0877   -1.6579    3.8459 H   0  0  0  0  0  0  0  0  0  0  0  0
   -2.6202    2.3119    0.1543 H   0  0  0  0  0  0  0  0  0  0  0  0
   -6.6258   -0.6083   -0.0744 H   0  0  0  0  0  0  0  0  0  0  0  0
   -4.8568    3.2616    0.4634 H   0  0  0  0  0  0  0  0  0  0  0  0
   -6.8649    1.8105    0.3445 H   0  0  0  0  0  0  0  0  0  0  0  0
  1 20  1  0  0  0  0
  2 16  2  0  0  0  0
  3 18  2  0  0  0  0
  4  9  1  0  0  0  0
  4 15  1  0  0  0  0
  4 16  1  0  0  0  0
  5  7  1  0  0  0  0
  5 16  1  0  0  0  0
  5 18  1  0  0  0  0
  6  8  1  0  0  0  0
  6 18  1  0  0  0  0
  6 19  1  0  0  0  0
  7  8  2  0  0  0  0
  9 10  1  0  0  0  0
  9 11  1  0  0  0  0
  9 25  1  0  0  0  0
 10 12  1  0  0  0  0
 10 26  1  0  0  0  0
 10 27  1  0  0  0  0
 11 13  1  0  0  0  0
 11 28  1  0  0  0  0
 11 29  1  0  0  0  0
 12 14  1  0  0  0  0
 12 30  1  0  0  0  0
 12 31  1  0  0  0  0
 13 14  1  0  0  0  0
 13 32  1  0  0  0  0
 13 33  1  0  0  0  0
 14 34  1  0  0  0  0
 14 35  1  0  0  0  0
 15 17  1  0  0  0  0
 15 36  1  0  0  0  0
 15 37  1  0  0  0  0
 17 38  1  0  0  0  0
 17 39  1  0  0  0  0
 17 40  1  0  0  0  0
 19 20  1  0  0  0  0
 19 21  2  0  0  0  0
 20 22  2  0  0  0  0
 21 23  1  0  0  0  0
 21 41  1  0  0  0  0
 22 24  1  0  0  0  0
 22 42  1  0  0  0  0
 23 24  2  0  0  0  0
 23 43  1  0  0  0  0
 24 44  1  0  0  0  0
M  END
> <PUBCHEM_COMPOUND_CID>
3081363

> <PUBCHEM_CONFORMER_RMSD>
0.8

> <PUBCHEM_CONFORMER_DIVERSEORDER>
1
54
16
111
45
90
89
23
109
79
108
43
56
37
80
88
81
11
106
59
82
15
35
103
117
65
105
27
78
107
25
14
83
116
95
13
34
48
60
7
115
104
46
32
61
42
17
101
53
77
113
8
98
67
71
97
44
114
22
92
39
69
100
73
72
85
33
96
57
76
52
20
50
29
74
55
30
38
102
86
40
84
36
99
4
24
41
66
31
112
75
3
68
70
62
94
12
5
87
49
10
91
28
118
93
6
58
9
18
2
47
64
63
21
110
26
51
19

> <PUBCHEM_MMFF94_PARTIAL_CHARGES>
22
1 -0.18
15 0.3
16 0.69
18 0.69
19 0.12
2 -0.57
20 0.18
21 -0.15
22 -0.15
23 -0.15
24 -0.15
3 -0.57
4 -0.66
41 0.15
42 0.15
43 0.15
44 0.15
5 -0.06
6 -0.11
7 -0.06
8 -0.06
9 0.3

> <PUBCHEM_EFFECTIVE_ROTOR_COUNT>
6.2

> <PUBCHEM_PHARMACOPHORE_FEATURES>
5
1 2 acceptor
1 3 acceptor
5 5 6 7 8 18 rings
6 19 20 21 22 23 24 rings
6 9 10 11 12 13 14 rings

> <PUBCHEM_HEAVY_ATOM_COUNT>
24

> <PUBCHEM_ATOM_DEF_STEREO_COUNT>
0

> <PUBCHEM_ATOM_UDEF_STEREO_COUNT>
0

> <PUBCHEM_BOND_DEF_STEREO_COUNT>
0

> <PUBCHEM_BOND_UDEF_STEREO_COUNT>
0

> <PUBCHEM_ISOTOPIC_ATOM_COUNT>
0

> <PUBCHEM_COMPONENT_COUNT>
1

> <PUBCHEM_CACTVS_TAUTO_COUNT>
1

> <PUBCHEM_CONFORMER_ID>
002F049300000001

> <PUBCHEM_MMFF94_ENERGY>
73.4645

> <PUBCHEM_FEATURE_SELFOVERLAP>
25.373

> <PUBCHEM_SHAPE_FINGERPRINT>
10 15 18336274458027023825
10366900 7 17095240328303852008
10595046 47 18409167752871727550
10670039 82 17988648441118431809
10912923 1 18186792582905975043
11595378 159 17895752886021172821
12107183 9 17539395536603736081
12236239 1 18334575754662112124
12390115 104 17631745863805756529
12403259 415 17417805171341346427
12596602 18 17894915131280441641
12788726 201 18340205172650638825
13533116 47 17168419359566333202
13583140 156 17675928686058191817
13631057 29 17533222101200558883
13782708 43 16558181756440635735
13785724 45 17834675994551979518
13955234 65 17095512960443723194
14251752 14 18130790036250378956
14341114 328 18113614590613805025
14347329 18 18131351865175391841
14528608 73 18335703870672138564
15142526 21 17751361900804848800
15183329 4 18130235886922622940
15238133 3 18341037537190634576
15961568 22 18335145271510636877
1601671 61 18201438064750302281
18681886 176 18272929466345471112
19377110 9 17894899754854488433
19784866 240 11240004459722462408
21033648 29 17346303900296369171
21065198 48 18186513294289183515
22079108 93 17386008407451934112
221357 26 15554447370777879313
22224240 67 15864073204309303192
23559900 14 18058166124741510295
3004659 81 18202005374834014022
3009799 131 15841549665917787866
34797466 226 17917724529515241485
3545911 37 18131634469918170965
4073 2 18114471144774635330
4325135 7 18411139147635652421
4340502 62 17240490195051790051
474 4 17676773179554897660
542803 24 18334857216558794005
54446538 1 18409166618974338380
59755656 215 17846506885652578670
59755656 520 17821729463950882946
633830 44 18041278868037890958
6823239 73 17846488270689434936
7808743 9 18341611538142354607

> <PUBCHEM_SHAPE_MULTIPOLES>
459.13
14.52
2.09
1.5
2.45
0.32
-0.9
5.59
1.93
0.63
0.01
-1.37
-0.83
-2.16

> <PUBCHEM_SHAPE_SELFOVERLAP>
959.583

> <PUBCHEM_SHAPE_VOLUME>
260.2

> <PUBCHEM_COORDINATE_TYPE>
2
5
10

$$$$
