32898
  -OEChem-07202400243D

 33 32  0     0  0  0  0  0  0999 V2000
   -6.0150   -0.4180   -0.0693 O   0  0  0  0  0  0  0  0  0  0  0  0
    1.4908   -0.1890   -0.3309 C   0  0  0  0  0  0  0  0  0  0  0  0
    2.7377    0.6171    0.0490 C   0  0  0  0  0  0  0  0  0  0  0  0
    0.2129    0.5316    0.1077 C   0  0  0  0  0  0  0  0  0  0  0  0
    4.0583   -0.0927   -0.3031 C   0  0  0  0  0  0  0  0  0  0  0  0
   -1.0669   -0.2418   -0.2231 C   0  0  0  0  0  0  0  0  0  0  0  0
   -2.3457    0.4893    0.1928 C   0  0  0  0  0  0  0  0  0  0  0  0
   -3.5900   -0.3424   -0.1357 C   0  0  0  0  0  0  0  0  0  0  0  0
    4.1106   -1.4604    0.3823 C   0  0  0  0  0  0  0  0  0  0  0  0
    5.2874    0.7282    0.0901 C   0  0  0  0  0  0  0  0  0  0  0  0
   -4.8801    0.3782    0.2401 C   0  0  0  0  0  0  0  0  0  0  0  0
    1.4729   -0.3554   -1.4143 H   0  0  0  0  0  0  0  0  0  0  0  0
    1.4984   -1.1710    0.1521 H   0  0  0  0  0  0  0  0  0  0  0  0
    2.7074    1.5875   -0.4622 H   0  0  0  0  0  0  0  0  0  0  0  0
    2.7172    0.8310    1.1256 H   0  0  0  0  0  0  0  0  0  0  0  0
    0.2500    0.7109    1.1895 H   0  0  0  0  0  0  0  0  0  0  0  0
    0.1711    1.5159   -0.3750 H   0  0  0  0  0  0  0  0  0  0  0  0
    4.0935   -0.2506   -1.3885 H   0  0  0  0  0  0  0  0  0  0  0  0
   -1.0311   -1.2192    0.2740 H   0  0  0  0  0  0  0  0  0  0  0  0
   -1.0981   -0.4369   -1.3023 H   0  0  0  0  0  0  0  0  0  0  0  0
   -2.3999    1.4548   -0.3241 H   0  0  0  0  0  0  0  0  0  0  0  0
   -2.3173    0.6978    1.2690 H   0  0  0  0  0  0  0  0  0  0  0  0
   -3.5469   -1.3059    0.3873 H   0  0  0  0  0  0  0  0  0  0  0  0
   -3.6128   -0.5839   -1.2057 H   0  0  0  0  0  0  0  0  0  0  0  0
    5.1003   -1.9149    0.2595 H   0  0  0  0  0  0  0  0  0  0  0  0
    3.3936   -2.1619   -0.0542 H   0  0  0  0  0  0  0  0  0  0  0  0
    3.9125   -1.3802    1.4565 H   0  0  0  0  0  0  0  0  0  0  0  0
    5.2717    1.7053   -0.4040 H   0  0  0  0  0  0  0  0  0  0  0  0
    5.3220    0.8964    1.1718 H   0  0  0  0  0  0  0  0  0  0  0  0
    6.2103    0.2181   -0.2052 H   0  0  0  0  0  0  0  0  0  0  0  0
   -4.9702    1.3192   -0.3117 H   0  0  0  0  0  0  0  0  0  0  0  0
   -4.9040    0.6093    1.3101 H   0  0  0  0  0  0  0  0  0  0  0  0
   -5.9318   -1.2506    0.4262 H   0  0  0  0  0  0  0  0  0  0  0  0
  1 11  1  0  0  0  0
  1 33  1  0  0  0  0
  2  3  1  0  0  0  0
  2  4  1  0  0  0  0
  2 12  1  0  0  0  0
  2 13  1  0  0  0  0
  3  5  1  0  0  0  0
  3 14  1  0  0  0  0
  3 15  1  0  0  0  0
  4  6  1  0  0  0  0
  4 16  1  0  0  0  0
  4 17  1  0  0  0  0
  5  9  1  0  0  0  0
  5 10  1  0  0  0  0
  5 18  1  0  0  0  0
  6  7  1  0  0  0  0
  6 19  1  0  0  0  0
  6 20  1  0  0  0  0
  7  8  1  0  0  0  0
  7 21  1  0  0  0  0
  7 22  1  0  0  0  0
  8 11  1  0  0  0  0
  8 23  1  0  0  0  0
  8 24  1  0  0  0  0
  9 25  1  0  0  0  0
  9 26  1  0  0  0  0
  9 27  1  0  0  0  0
 10 28  1  0  0  0  0
 10 29  1  0  0  0  0
 10 30  1  0  0  0  0
 11 31  1  0  0  0  0
 11 32  1  0  0  0  0
M  END
> <PUBCHEM_COMPOUND_CID>
32898

> <PUBCHEM_CONFORMER_RMSD>
0.6

> <PUBCHEM_CONFORMER_DIVERSEORDER>
1
44
21
74
82
42
83
35
51
91
28
78
10
32
68
17
76
88
16
14
15
58
63
70
77
30
40
2
53
50
90
13
97
72
60
56
81
8
49
95
43
84
9
85
20
29
55
73
62
5
19
89
54
92
87
48
47
12
75
23
69
7
57
22
79
93
52
61
3
66
6
86
65
24
11
38
41
96
64
37
94
26
27
39
33
25
71
4
80
67
45
31
46
18
36
59
34

> <PUBCHEM_MMFF94_PARTIAL_CHARGES>
3
1 -0.68
11 0.28
33 0.4

> <PUBCHEM_EFFECTIVE_ROTOR_COUNT>
7

> <PUBCHEM_PHARMACOPHORE_FEATURES>
3
1 1 acceptor
1 1 donor
3 5 9 10 hydrophobe

> <PUBCHEM_HEAVY_ATOM_COUNT>
11

> <PUBCHEM_ATOM_DEF_STEREO_COUNT>
0

> <PUBCHEM_ATOM_UDEF_STEREO_COUNT>
0

> <PUBCHEM_BOND_DEF_STEREO_COUNT>
0

> <PUBCHEM_BOND_UDEF_STEREO_COUNT>
0

> <PUBCHEM_ISOTOPIC_ATOM_COUNT>
0

> <PUBCHEM_COMPONENT_COUNT>
1

> <PUBCHEM_CACTVS_TAUTO_COUNT>
1

> <PUBCHEM_CONFORMER_ID>
0000808200000001

> <PUBCHEM_MMFF94_ENERGY>
3.8626

> <PUBCHEM_FEATURE_SELFOVERLAP>
15.223

> <PUBCHEM_SHAPE_FINGERPRINT>
11287383 113 17168150073691061577
114248 4 17458063767806194025
12815109 37 18411700993249637349
13533116 47 18342738473258154730
14123238 8 18131914862120063293
1420 363 17240490208522065745
14251718 22 18186802504185288097
15242433 33 18411419522800158598
17834072 33 18342174492095318063
17834076 25 15985106314475782628
20279233 1 16877950425533625176
20645477 70 18262516992720666410
20719005 15 18341895186198476101
20767249 13 15430034361682901772
22485316 2 18408602573862005874
23402539 116 18202559571427658805
366044 4 18410575097870214963
42 15 18409168787911346966
42788 4 18342739615365624525
522135 26 18334576833004845430
5374978 207 18131626777684530696
57483677 66 18408884049107969267

> <PUBCHEM_SHAPE_MULTIPOLES>
220.51
13.68
0.99
0.66
8.38
0.2
0
0.68
0.59
-0.95
0.09
-0.11
0.02
-0.24

> <PUBCHEM_SHAPE_SELFOVERLAP>
390.171

> <PUBCHEM_SHAPE_VOLUME>
144.9

> <PUBCHEM_COORDINATE_TYPE>
2
5
10

$$$$
