33263
  -OEChem-07202400243D

 55 57  0     0  0  0  0  0  0999 V2000
    0.1877    2.2807   -0.3703 O   0  0  0  0  0  0  0  0  0  0  0  0
    1.6336   -0.0787    0.0104 N   0  0  0  0  0  0  0  0  0  0  0  0
    2.3194   -1.2148    0.1937 N   0  0  0  0  0  0  0  0  0  0  0  0
    2.3125    1.0613   -0.1741 N   0  0  0  0  0  0  0  0  0  0  0  0
   -2.6486    2.3304   -0.3763 C   0  0  0  0  0  0  0  0  0  0  0  0
   -2.5471   -2.5969    0.4091 C   0  0  0  0  0  0  0  0  0  0  0  0
   -1.8628    1.0763   -0.1770 C   0  0  0  0  0  0  0  0  0  0  0  0
   -1.8001   -1.2673    0.1969 C   0  0  0  0  0  0  0  0  0  0  0  0
   -2.3774    3.4076    0.7436 C   0  0  0  0  0  0  0  0  0  0  0  0
   -3.4824   -2.9194   -0.7970 C   0  0  0  0  0  0  0  0  0  0  0  0
   -2.5406   -0.1276    0.0149 C   0  0  0  0  0  0  0  0  0  0  0  0
   -4.1804    2.0152   -0.3255 C   0  0  0  0  0  0  0  0  0  0  0  0
   -2.4366    3.0434   -1.7556 C   0  0  0  0  0  0  0  0  0  0  0  0
   -3.4270   -2.4656    1.6776 C   0  0  0  0  0  0  0  0  0  0  0  0
   -1.6125   -3.8067    0.6518 C   0  0  0  0  0  0  0  0  0  0  0  0
   -0.4681    1.0988   -0.1801 C   0  0  0  0  0  0  0  0  0  0  0  0
   -0.4289   -1.2867    0.2005 C   0  0  0  0  0  0  0  0  0  0  0  0
    0.2488   -0.0826    0.0087 C   0  0  0  0  0  0  0  0  0  0  0  0
   -2.7700    2.9692    2.1516 C   0  0  0  0  0  0  0  0  0  0  0  0
   -2.7868   -3.0190   -2.1517 C   0  0  0  0  0  0  0  0  0  0  0  0
    3.5946   -0.7987    0.1260 C   0  0  0  0  0  0  0  0  0  0  0  0
    3.5903    0.6526   -0.1082 C   0  0  0  0  0  0  0  0  0  0  0  0
    4.7877   -1.5356    0.2447 C   0  0  0  0  0  0  0  0  0  0  0  0
    4.7790    1.3963   -0.2285 C   0  0  0  0  0  0  0  0  0  0  0  0
    5.9598   -0.7673    0.1205 C   0  0  0  0  0  0  0  0  0  0  0  0
    5.9558    0.6350   -0.1058 C   0  0  0  0  0  0  0  0  0  0  0  0
   -1.3401    3.7443    0.7893 H   0  0  0  0  0  0  0  0  0  0  0  0
   -2.9563    4.3122    0.5106 H   0  0  0  0  0  0  0  0  0  0  0  0
   -3.9991   -3.8701   -0.6088 H   0  0  0  0  0  0  0  0  0  0  0  0
   -4.2770   -2.1676   -0.8810 H   0  0  0  0  0  0  0  0  0  0  0  0
   -3.6163   -0.2149    0.0145 H   0  0  0  0  0  0  0  0  0  0  0  0
   -4.5113    1.5519    0.6102 H   0  0  0  0  0  0  0  0  0  0  0  0
   -4.4941    1.3825   -1.1658 H   0  0  0  0  0  0  0  0  0  0  0  0
   -4.7608    2.9431   -0.4176 H   0  0  0  0  0  0  0  0  0  0  0  0
   -3.1784    3.8392   -1.8974 H   0  0  0  0  0  0  0  0  0  0  0  0
   -2.5726    2.3239   -2.5724 H   0  0  0  0  0  0  0  0  0  0  0  0
   -1.4656    3.5143   -1.9091 H   0  0  0  0  0  0  0  0  0  0  0  0
   -4.2139   -1.7110    1.5713 H   0  0  0  0  0  0  0  0  0  0  0  0
   -2.8238   -2.1906    2.5513 H   0  0  0  0  0  0  0  0  0  0  0  0
   -3.9288   -3.4133    1.9070 H   0  0  0  0  0  0  0  0  0  0  0  0
   -2.1983   -4.7234    0.7949 H   0  0  0  0  0  0  0  0  0  0  0  0
   -1.0078   -3.6800    1.5581 H   0  0  0  0  0  0  0  0  0  0  0  0
   -0.9374   -3.9981   -0.1890 H   0  0  0  0  0  0  0  0  0  0  0  0
    0.1352   -2.1976    0.3462 H   0  0  0  0  0  0  0  0  0  0  0  0
   -2.4729    3.7401    2.8711 H   0  0  0  0  0  0  0  0  0  0  0  0
   -2.2716    2.0400    2.4423 H   0  0  0  0  0  0  0  0  0  0  0  0
   -3.8503    2.8392    2.2569 H   0  0  0  0  0  0  0  0  0  0  0  0
   -3.5244   -3.2455   -2.9289 H   0  0  0  0  0  0  0  0  0  0  0  0
   -2.0413   -3.8187   -2.1659 H   0  0  0  0  0  0  0  0  0  0  0  0
   -2.2968   -2.0811   -2.4281 H   0  0  0  0  0  0  0  0  0  0  0  0
   -0.3754    3.0209   -0.6005 H   0  0  0  0  0  0  0  0  0  0  0  0
    4.8129   -2.6040    0.4172 H   0  0  0  0  0  0  0  0  0  0  0  0
    4.7977    2.4648   -0.4010 H   0  0  0  0  0  0  0  0  0  0  0  0
    6.9215   -1.2724    0.2019 H   0  0  0  0  0  0  0  0  0  0  0  0
    6.9144    1.1456   -0.1884 H   0  0  0  0  0  0  0  0  0  0  0  0
  1 16  1  0  0  0  0
  1 51  1  0  0  0  0
  2  3  1  0  0  0  0
  2  4  1  0  0  0  0
  2 18  1  0  0  0  0
  3 21  2  0  0  0  0
  4 22  2  0  0  0  0
  5  7  1  0  0  0  0
  5  9  1  0  0  0  0
  5 12  1  0  0  0  0
  5 13  1  0  0  0  0
  6  8  1  0  0  0  0
  6 10  1  0  0  0  0
  6 14  1  0  0  0  0
  6 15  1  0  0  0  0
  7 11  1  0  0  0  0
  7 16  2  0  0  0  0
  8 11  2  0  0  0  0
  8 17  1  0  0  0  0
  9 19  1  0  0  0  0
  9 27  1  0  0  0  0
  9 28  1  0  0  0  0
 10 20  1  0  0  0  0
 10 29  1  0  0  0  0
 10 30  1  0  0  0  0
 11 31  1  0  0  0  0
 12 32  1  0  0  0  0
 12 33  1  0  0  0  0
 12 34  1  0  0  0  0
 13 35  1  0  0  0  0
 13 36  1  0  0  0  0
 13 37  1  0  0  0  0
 14 38  1  0  0  0  0
 14 39  1  0  0  0  0
 14 40  1  0  0  0  0
 15 41  1  0  0  0  0
 15 42  1  0  0  0  0
 15 43  1  0  0  0  0
 16 18  1  0  0  0  0
 17 18  2  0  0  0  0
 17 44  1  0  0  0  0
 19 45  1  0  0  0  0
 19 46  1  0  0  0  0
 19 47  1  0  0  0  0
 20 48  1  0  0  0  0
 20 49  1  0  0  0  0
 20 50  1  0  0  0  0
 21 22  1  0  0  0  0
 21 23  1  0  0  0  0
 22 24  1  0  0  0  0
 23 25  2  0  0  0  0
 23 52  1  0  0  0  0
 24 26  2  0  0  0  0
 24 53  1  0  0  0  0
 25 26  1  0  0  0  0
 25 54  1  0  0  0  0
 26 55  1  0  0  0  0
M  END
> <PUBCHEM_COMPOUND_CID>
33263

> <PUBCHEM_CONFORMER_RMSD>
0.8

> <PUBCHEM_CONFORMER_DIVERSEORDER>
2
21
12
17
10
20
3
11
19
8
15
9
18
14
16
6
13
7
1
5
4

> <PUBCHEM_MMFF94_PARTIAL_CHARGES>
25
1 -0.53
11 -0.15
16 0.08
17 -0.15
18 -0.02
2 0.86
21 0.29
22 0.29
23 -0.15
24 -0.15
25 -0.15
26 -0.15
3 -0.71
31 0.15
4 -0.71
44 0.15
5 0.14
51 0.45
52 0.15
53 0.15
54 0.15
55 0.15
6 0.14
7 -0.14
8 -0.14

> <PUBCHEM_EFFECTIVE_ROTOR_COUNT>
5

> <PUBCHEM_PHARMACOPHORE_FEATURES>
10
1 1 donor
1 19 hydrophobe
1 20 hydrophobe
1 3 acceptor
1 4 acceptor
3 5 12 13 hydrophobe
3 6 14 15 hydrophobe
5 2 3 4 21 22 rings
6 21 22 23 24 25 26 rings
6 7 8 11 16 17 18 rings

> <PUBCHEM_HEAVY_ATOM_COUNT>
26

> <PUBCHEM_ATOM_DEF_STEREO_COUNT>
0

> <PUBCHEM_ATOM_UDEF_STEREO_COUNT>
0

> <PUBCHEM_BOND_DEF_STEREO_COUNT>
0

> <PUBCHEM_BOND_UDEF_STEREO_COUNT>
0

> <PUBCHEM_ISOTOPIC_ATOM_COUNT>
0

> <PUBCHEM_COMPONENT_COUNT>
1

> <PUBCHEM_CACTVS_TAUTO_COUNT>
3

> <PUBCHEM_CONFORMER_ID>
000081EF00000002

> <PUBCHEM_MMFF94_ENERGY>
108.9802

> <PUBCHEM_FEATURE_SELFOVERLAP>
50.927

> <PUBCHEM_SHAPE_FINGERPRINT>
10319926 262 18338781366007635882
10411042 1 18048319143632821891
10616163 171 18410012135253509278
1100329 8 18410296938877470657
11045515 52 18118956134435111567
11056379 131 18339934791690146870
11101153 10 18046069517547258028
11115154 58 18056741347658114351
11405975 8 18338234869736172026
11552529 35 18343862234144156912
12107183 9 17974279929463001098
12160290 23 18265872745020570779
12553582 1 18120940765338916675
12643181 29 18123475978278298086
12788726 201 18338502119344004395
13004483 165 18269264836950271183
13140716 1 18266469882977017307
133893 2 16010458956752770732
13583140 156 17703779332843272034
13631057 29 18338797939716568696
138480 1 16607440564337584259
14508225 48 18265039422523026469
14674994 50 15911898721728024007
14790565 3 18050289159105544016
14844126 61 18410008862076902131
14866123 147 18409448072819195083
15042514 8 18334301989394336451
15131766 46 15649058250546278862
15196674 1 18408041819317179412
15230672 131 18045788880406051118
15250474 111 18188196655493129402
15463212 79 18187639150755593576
16087824 20 18410008824745938221
17492 89 18335140908419819602
17844677 252 18410301345792854424
1813 80 17981344574775462215
18927931 339 18338523035834677574
20101258 96 18263091061695401800
20775438 99 16614161381183119487
21033648 144 18339069424805928572
21033650 10 17130162901057334592
21065198 57 18409448060287123096
21202864 24 18340219505072172929
21236236 1 18410292523080877863
21641784 216 17970078926981461900
22182313 1 17987536852485380654
22224240 67 18267032652943466649
22393880 68 18410860941503762726
23227448 37 18335700512155380500
23419403 2 17130124632966454795
23557571 272 18342181098050405620
23558518 356 18113907078198223762
23559900 14 18339913909559413424
23845131 108 17977117764690068153
283562 15 18336543910351276595
350125 39 18409454703821243624
4073 2 18409168793251111626
4214541 1 18408603648036333564
4258327 124 17968111827401494060
469060 322 16225771830579527339
484985 159 16660652881315492155
5104073 3 18409163299839935816
5171179 24 17914600903433859705
5309563 4 17977107090879010170
59755656 520 18268713805256575173
633830 44 17697599892173728701
70251023 43 18053369179037713959
81228 2 18335701684818342225
9709674 26 18341334388451315102

> <PUBCHEM_SHAPE_MULTIPOLES>
514.26
10.64
4.68
1.31
20.33
0.54
0.03
0.35
0
-7.5
-0.11
-1.88
-0.04
-0.6

> <PUBCHEM_SHAPE_SELFOVERLAP>
1102.192

> <PUBCHEM_SHAPE_VOLUME>
287.4

> <PUBCHEM_COORDINATE_TYPE>
2
5
10

$$$$
