43523
  -OEChem-07202400473D

 38 39  0     1  0  0  0  0  0999 V2000
   -1.9206    1.0788    0.6070 N   0  0  0  0  0  0  0  0  0  0  0  0
   -3.0964    2.3407   -0.7642 N   0  0  0  0  0  0  0  0  0  0  0  0
    1.9785   -0.5026    3.0466 N   0  0  0  0  0  0  0  0  0  0  0  0
    0.4573    0.1383    0.9645 C   0  0  1  0  0  0  0  0  0  0  0  0
    1.1977    1.2942    0.2090 C   0  0  0  0  0  0  0  0  0  0  0  0
   -0.8839    0.6942    1.5621 C   0  0  0  0  0  0  0  0  0  0  0  0
    2.5656    0.9231   -0.3954 C   0  0  0  0  0  0  0  0  0  0  0  0
    0.1534   -1.1084    0.1106 C   0  0  0  0  0  0  0  0  0  0  0  0
    3.1403    2.0883   -1.2042 C   0  0  0  0  0  0  0  0  0  0  0  0
    1.3131   -0.2271    2.1360 C   0  0  0  0  0  0  0  0  0  0  0  0
    0.0920   -2.3248    0.7396 C   0  0  0  0  0  0  0  0  0  0  0  0
   -0.0412   -0.9398   -1.2357 C   0  0  0  0  0  0  0  0  0  0  0  0
    4.5051    1.7467   -1.7811 C   0  0  0  0  0  0  0  0  0  0  0  0
   -2.8905    0.2651    0.1229 C   0  0  0  0  0  0  0  0  0  0  0  0
   -2.0714    2.3100    0.0584 C   0  0  0  0  0  0  0  0  0  0  0  0
   -0.1832   -3.4531   -0.0330 C   0  0  0  0  0  0  0  0  0  0  0  0
   -0.3165   -2.0681   -2.0081 C   0  0  0  0  0  0  0  0  0  0  0  0
   -0.3875   -3.3248   -1.4068 C   0  0  0  0  0  0  0  0  0  0  0  0
   -3.6117    1.0693   -0.7282 C   0  0  0  0  0  0  0  0  0  0  0  0
    1.3568    2.1299    0.9064 H   0  0  0  0  0  0  0  0  0  0  0  0
    0.5688    1.7025   -0.5895 H   0  0  0  0  0  0  0  0  0  0  0  0
   -0.6915    1.5785    2.1855 H   0  0  0  0  0  0  0  0  0  0  0  0
   -1.3476   -0.0490    2.2268 H   0  0  0  0  0  0  0  0  0  0  0  0
    2.4857    0.0467   -1.0457 H   0  0  0  0  0  0  0  0  0  0  0  0
    3.2667    0.6624    0.4059 H   0  0  0  0  0  0  0  0  0  0  0  0
    3.2319    2.9751   -0.5664 H   0  0  0  0  0  0  0  0  0  0  0  0
    2.4583    2.3454   -2.0231 H   0  0  0  0  0  0  0  0  0  0  0  0
    0.2152   -2.4603    1.8081 H   0  0  0  0  0  0  0  0  0  0  0  0
   -0.0141    0.0199   -1.7363 H   0  0  0  0  0  0  0  0  0  0  0  0
    5.2206    1.5158   -0.9855 H   0  0  0  0  0  0  0  0  0  0  0  0
    4.8963    2.5924   -2.3551 H   0  0  0  0  0  0  0  0  0  0  0  0
    4.4430    0.8820   -2.4495 H   0  0  0  0  0  0  0  0  0  0  0  0
   -2.9964   -0.7723    0.4082 H   0  0  0  0  0  0  0  0  0  0  0  0
   -1.4223    3.1448    0.2853 H   0  0  0  0  0  0  0  0  0  0  0  0
   -0.2460   -4.4308    0.4359 H   0  0  0  0  0  0  0  0  0  0  0  0
   -0.4810   -1.9681   -3.0771 H   0  0  0  0  0  0  0  0  0  0  0  0
   -0.6048   -4.2029   -2.0079 H   0  0  0  0  0  0  0  0  0  0  0  0
   -4.4763    0.7974   -1.3157 H   0  0  0  0  0  0  0  0  0  0  0  0
  1  6  1  0  0  0  0
  1 14  1  0  0  0  0
  1 15  1  0  0  0  0
  2 15  2  0  0  0  0
  2 19  1  0  0  0  0
  3 10  3  0  0  0  0
  4  5  1  0  0  0  0
  4  6  1  0  0  0  0
  4  8  1  0  0  0  0
  4 10  1  0  0  0  0
  5  7  1  0  0  0  0
  5 20  1  0  0  0  0
  5 21  1  0  0  0  0
  6 22  1  0  0  0  0
  6 23  1  0  0  0  0
  7  9  1  0  0  0  0
  7 24  1  0  0  0  0
  7 25  1  0  0  0  0
  8 11  2  0  0  0  0
  8 12  1  0  0  0  0
  9 13  1  0  0  0  0
  9 26  1  0  0  0  0
  9 27  1  0  0  0  0
 11 16  1  0  0  0  0
 11 28  1  0  0  0  0
 12 17  2  0  0  0  0
 12 29  1  0  0  0  0
 13 30  1  0  0  0  0
 13 31  1  0  0  0  0
 13 32  1  0  0  0  0
 14 19  2  0  0  0  0
 14 33  1  0  0  0  0
 15 34  1  0  0  0  0
 16 18  2  0  0  0  0
 16 35  1  0  0  0  0
 17 18  1  0  0  0  0
 17 36  1  0  0  0  0
 18 37  1  0  0  0  0
 19 38  1  0  0  0  0
M  END
> <PUBCHEM_COMPOUND_CID>
43523

> <PUBCHEM_CONFORMER_RMSD>
0.8

> <PUBCHEM_CONFORMER_DIVERSEORDER>
1
40
44
35
18
16
30
14
32
4
43
34
41
15
46
21
11
45
2
17
39
37
7
13
27
22
38
12
42
36
25
31
19
24
10
29
8
5
9
33
6
23
20
3
28
26

> <PUBCHEM_MMFF94_PARTIAL_CHARGES>
23
1 0.05
10 0.36
11 -0.15
12 -0.15
14 -0.3
15 0.04
16 -0.15
17 -0.15
18 -0.15
19 0.08
2 -0.57
28 0.15
29 0.15
3 -0.56
33 0.15
34 0.15
35 0.15
36 0.15
37 0.15
38 0.15
4 0.34
6 0.26
8 -0.14

> <PUBCHEM_EFFECTIVE_ROTOR_COUNT>
6

> <PUBCHEM_PHARMACOPHORE_FEATURES>
6
1 13 hydrophobe
1 3 acceptor
3 1 2 15 cation
4 4 5 7 9 hydrophobe
5 1 2 14 15 19 rings
6 8 11 12 16 17 18 rings

> <PUBCHEM_HEAVY_ATOM_COUNT>
19

> <PUBCHEM_ATOM_DEF_STEREO_COUNT>
0

> <PUBCHEM_ATOM_UDEF_STEREO_COUNT>
1

> <PUBCHEM_BOND_DEF_STEREO_COUNT>
0

> <PUBCHEM_BOND_UDEF_STEREO_COUNT>
0

> <PUBCHEM_ISOTOPIC_ATOM_COUNT>
0

> <PUBCHEM_COMPONENT_COUNT>
1

> <PUBCHEM_CACTVS_TAUTO_COUNT>
1

> <PUBCHEM_CONFORMER_ID>
0000AA0300000001

> <PUBCHEM_MMFF94_ENERGY>
40.1161

> <PUBCHEM_FEATURE_SELFOVERLAP>
30.446

> <PUBCHEM_SHAPE_FINGERPRINT>
10756046 70 18042380501084255226
12173636 292 16881341487024550396
12617007 42 17257089268920698053
13149001 5 17702663413908136944
13681431 1 17621889686090132943
14022347 108 17619893393981704575
14142880 1 16735232871044551164
14181834 199 17338684117048515815
14251751 93 18408889559249979212
14713325 29 18122363520943150654
14817 1 13750470658825890970
14863182 85 17984958454752390695
15163728 17 18045247996865345548
15502708 8 17982458388380128356
15534591 1 17969224602167289092
16945 1 18121221136519029704
17980427 23 17828169161330450209
20473742 2 18042410131989959118
20602899 9 17916328128652528124
20645476 183 18334853960984113592
20711985 344 17909535495802587286
21524375 3 18041286542617668780
22889148 1 18128530664124598631
22907989 373 17838928127637405756
23419403 2 17401267343691183698
23526113 38 17058931250556914616
23557571 272 17698154398617065536
298252 57 18336555983757280216
3060560 45 18411973646453654357
4175511 376 17975150754813114127
57262259 84 17838914963377702150
68419 9 18046599447279677080
7364860 26 17198233618476640875
81228 2 17624958814191449099

> <PUBCHEM_SHAPE_MULTIPOLES>
376.07
4.99
3.71
2.19
3.87
2.69
-1.2
-5.5
2.91
-1.96
1.5
1.45
0.61
-0.91

> <PUBCHEM_SHAPE_SELFOVERLAP>
786.504

> <PUBCHEM_SHAPE_VOLUME>
211.6

> <PUBCHEM_COORDINATE_TYPE>
2
5
10

$$$$
