44473182
  -OEChem-07202400573D

 61 62  0     1  0  0  0  0  0999 V2000
    4.6296   -0.9671   -1.9809 S   0  0  0  0  0  0  0  0  0  0  0  0
    4.0459    0.5258    0.5521 O   0  0  0  0  0  0  0  0  0  0  0  0
   -3.7835    1.0709    1.0629 O   0  0  0  0  0  0  0  0  0  0  0  0
    4.4968   -1.1682   -3.4163 O   0  0  0  0  0  0  0  0  0  0  0  0
    5.5748    0.0138   -1.4701 O   0  0  0  0  0  0  0  0  0  0  0  0
   -1.1178   -0.1781    1.3594 O   0  0  0  0  0  0  0  0  0  0  0  0
   -3.7170   -1.3021    0.9793 O   0  0  0  0  0  0  0  0  0  0  0  0
    6.3364    1.1737    2.0272 O   0  0  0  0  0  0  0  0  0  0  0  0
   -3.3479   -3.4406    0.6015 O   0  0  0  0  0  0  0  0  0  0  0  0
   -5.5055   -2.6504    0.4293 O   0  0  0  0  0  0  0  0  0  0  0  0
   -3.6435    2.1077   -1.0848 N   0  0  0  0  0  0  0  0  0  0  0  0
   -2.8215    2.3032   -2.1300 N   0  0  0  0  0  0  0  0  0  0  0  0
    1.6665    0.4084    0.3892 C   0  0  0  0  0  0  0  0  0  0  0  0
    0.5253   -0.0076   -0.2966 C   0  0  0  0  0  0  0  0  0  0  0  0
    3.0556   -0.5888   -1.3176 C   0  0  0  0  0  0  0  0  0  0  0  0
    2.9316    0.1177   -0.1212 C   0  0  0  0  0  0  0  0  0  0  0  0
   -1.8201    1.0584   -0.4975 C   0  0  0  0  0  0  0  0  0  0  0  0
   -0.8547    0.2910    0.2291 C   0  0  0  0  0  0  0  0  0  0  0  0
    0.6494   -0.7140   -1.4930 C   0  0  0  0  0  0  0  0  0  0  0  0
    1.9144   -1.0046   -2.0034 C   0  0  0  0  0  0  0  0  0  0  0  0
   -3.0916    1.3681   -0.0804 C   0  0  0  0  0  0  0  0  0  0  0  0
    1.5406    1.1665    1.6729 C   0  0  0  0  0  0  0  0  0  0  0  0
   -4.9724    2.6731   -1.1148 C   0  0  0  0  0  0  0  0  0  0  0  0
   -1.7091    1.6600   -1.7653 C   0  0  0  0  0  0  0  0  0  0  0  0
    5.0376   -2.5448   -1.2704 C   0  0  0  0  0  0  0  0  0  0  0  0
    4.5831   -0.3747    1.5177 C   0  0  0  0  0  0  0  0  0  0  0  0
   -4.5592   -0.1353    1.0878 C   0  0  1  0  0  0  0  0  0  0  0  0
   -4.9585    4.1670   -0.8290 C   0  0  0  0  0  0  0  0  0  0  0  0
    5.2761    0.4223    2.6060 C   0  0  0  0  0  0  0  0  0  0  0  0
   -5.2572   -0.1739    2.4437 C   0  0  0  0  0  0  0  0  0  0  0  0
    7.0093    1.9596    3.0008 C   0  0  0  0  0  0  0  0  0  0  0  0
   -4.3136   -2.4807    0.6472 C   0  0  0  0  0  0  0  0  0  0  0  0
   -3.7998   -4.7565    0.2655 C   0  0  0  0  0  0  0  0  0  0  0  0
   -0.2292   -1.0565   -2.0336 H   0  0  0  0  0  0  0  0  0  0  0  0
    1.9852   -1.5644   -2.9317 H   0  0  0  0  0  0  0  0  0  0  0  0
    1.4304    0.4725    2.5121 H   0  0  0  0  0  0  0  0  0  0  0  0
    2.4115    1.8024    1.8623 H   0  0  0  0  0  0  0  0  0  0  0  0
    0.6851    1.8499    1.6584 H   0  0  0  0  0  0  0  0  0  0  0  0
   -5.3929    2.4748   -2.1071 H   0  0  0  0  0  0  0  0  0  0  0  0
   -5.6001    2.1578   -0.3827 H   0  0  0  0  0  0  0  0  0  0  0  0
   -0.8695    1.6684   -2.4456 H   0  0  0  0  0  0  0  0  0  0  0  0
    6.0911   -2.7469   -1.4752 H   0  0  0  0  0  0  0  0  0  0  0  0
    4.8550   -2.5558   -0.1997 H   0  0  0  0  0  0  0  0  0  0  0  0
    4.4187   -3.3068   -1.7503 H   0  0  0  0  0  0  0  0  0  0  0  0
    3.8049   -1.0120    1.9533 H   0  0  0  0  0  0  0  0  0  0  0  0
    5.3372   -0.9969    1.0344 H   0  0  0  0  0  0  0  0  0  0  0  0
   -5.2935   -0.1142    0.2732 H   0  0  0  0  0  0  0  0  0  0  0  0
   -4.5313    4.3740    0.1579 H   0  0  0  0  0  0  0  0  0  0  0  0
   -5.9770    4.5666   -0.8519 H   0  0  0  0  0  0  0  0  0  0  0  0
   -4.3636    4.7090   -1.5717 H   0  0  0  0  0  0  0  0  0  0  0  0
    5.6767   -0.2558    3.3675 H   0  0  0  0  0  0  0  0  0  0  0  0
    4.5644    1.1122    3.0735 H   0  0  0  0  0  0  0  0  0  0  0  0
   -4.5195   -0.2090    3.2536 H   0  0  0  0  0  0  0  0  0  0  0  0
   -5.8641    0.7250    2.5929 H   0  0  0  0  0  0  0  0  0  0  0  0
   -5.8971   -1.0549    2.5470 H   0  0  0  0  0  0  0  0  0  0  0  0
    7.8129    2.5095    2.5038 H   0  0  0  0  0  0  0  0  0  0  0  0
    7.4491    1.3207    3.7728 H   0  0  0  0  0  0  0  0  0  0  0  0
    6.3220    2.6805    3.4541 H   0  0  0  0  0  0  0  0  0  0  0  0
   -2.9335   -5.4233    0.2640 H   0  0  0  0  0  0  0  0  0  0  0  0
   -4.2472   -4.7596   -0.7331 H   0  0  0  0  0  0  0  0  0  0  0  0
   -4.5162   -5.1129    1.0118 H   0  0  0  0  0  0  0  0  0  0  0  0
  1  4  2  0  0  0  0
  1  5  2  0  0  0  0
  1 15  1  0  0  0  0
  1 25  1  0  0  0  0
  2 16  1  0  0  0  0
  2 26  1  0  0  0  0
  3 21  1  0  0  0  0
  3 27  1  0  0  0  0
  6 18  2  0  0  0  0
  7 27  1  0  0  0  0
  7 32  1  0  0  0  0
  8 29  1  0  0  0  0
  8 31  1  0  0  0  0
  9 32  1  0  0  0  0
  9 33  1  0  0  0  0
 10 32  2  0  0  0  0
 11 12  1  0  0  0  0
 11 21  1  0  0  0  0
 11 23  1  0  0  0  0
 12 24  2  0  0  0  0
 13 14  2  0  0  0  0
 13 16  1  0  0  0  0
 13 22  1  0  0  0  0
 14 18  1  0  0  0  0
 14 19  1  0  0  0  0
 15 16  2  0  0  0  0
 15 20  1  0  0  0  0
 17 18  1  0  0  0  0
 17 21  2  0  0  0  0
 17 24  1  0  0  0  0
 19 20  2  0  0  0  0
 19 34  1  0  0  0  0
 20 35  1  0  0  0  0
 22 36  1  0  0  0  0
 22 37  1  0  0  0  0
 22 38  1  0  0  0  0
 23 28  1  0  0  0  0
 23 39  1  0  0  0  0
 23 40  1  0  0  0  0
 24 41  1  0  0  0  0
 25 42  1  0  0  0  0
 25 43  1  0  0  0  0
 25 44  1  0  0  0  0
 26 29  1  0  0  0  0
 26 45  1  0  0  0  0
 26 46  1  0  0  0  0
 27 30  1  0  0  0  0
 27 47  1  0  0  0  0
 28 48  1  0  0  0  0
 28 49  1  0  0  0  0
 28 50  1  0  0  0  0
 29 51  1  0  0  0  0
 29 52  1  0  0  0  0
 30 53  1  0  0  0  0
 30 54  1  0  0  0  0
 30 55  1  0  0  0  0
 31 56  1  0  0  0  0
 31 57  1  0  0  0  0
 31 58  1  0  0  0  0
 33 59  1  0  0  0  0
 33 60  1  0  0  0  0
 33 61  1  0  0  0  0
M  END
> <PUBCHEM_COMPOUND_CID>
44473182

> <PUBCHEM_CONFORMER_RMSD>
1.2

> <PUBCHEM_CONFORMER_DIVERSEORDER>
1
24
6
32
28
30
2
34
10
45
27
12
55
31
42
44
4
49
36
11
41
29
52
14
23
16
53
39
50
35
48
20
13
33
56
25
21
43
9
38
26
37
5
7
40
51
18
54
47
46
3
17
15
8
19
22

> <PUBCHEM_MMFF94_PARTIAL_CHARGES>
34
1 1.2
10 -0.57
11 0.31
12 -0.71
13 -0.14
14 0.09
15 -0.01
16 0.08
17 -0.09
18 0.57
19 -0.15
2 -0.36
20 -0.15
21 -0.09
22 0.14
23 0.26
24 0.14
25 0.11
26 0.28
27 0.56
29 0.28
3 -0.34
31 0.28
32 0.87
33 0.28
34 0.15
35 0.15
4 -0.65
41 0.15
5 -0.65
6 -0.57
7 -0.43
8 -0.56
9 -0.43

> <PUBCHEM_EFFECTIVE_ROTOR_COUNT>
13

> <PUBCHEM_PHARMACOPHORE_FEATURES>
9
1 12 acceptor
1 2 acceptor
1 3 acceptor
1 4 acceptor
1 5 acceptor
1 6 acceptor
1 8 acceptor
5 11 12 17 21 24 rings
6 13 14 15 16 19 20 rings

> <PUBCHEM_HEAVY_ATOM_COUNT>
33

> <PUBCHEM_ATOM_DEF_STEREO_COUNT>
0

> <PUBCHEM_ATOM_UDEF_STEREO_COUNT>
1

> <PUBCHEM_BOND_DEF_STEREO_COUNT>
0

> <PUBCHEM_BOND_UDEF_STEREO_COUNT>
0

> <PUBCHEM_ISOTOPIC_ATOM_COUNT>
0

> <PUBCHEM_COMPONENT_COUNT>
1

> <PUBCHEM_CACTVS_TAUTO_COUNT>
1

> <PUBCHEM_CONFORMER_ID>
02A69B5E00000001

> <PUBCHEM_MMFF94_ENERGY>
87.626

> <PUBCHEM_FEATURE_SELFOVERLAP>
45.713

> <PUBCHEM_SHAPE_FINGERPRINT>
10369192 42 17628077008020611208
10462674 125 16983478454612446143
11135926 11 16988555832464367880
11796584 16 18192158101150643502
12236239 1 16298684818524614549
12616971 3 15574716837666435024
12788726 201 17894920658666312347
13540713 4 18130788967088827014
13583140 156 18265873861480108696
13782708 43 18342184344983014623
14910302 57 18411989056859557139
15021287 119 15285632145601819896
15250474 111 16515405153297529440
17349148 13 16732989733926720299
17913733 40 16773517797536745594
19377110 9 17603583075897908480
20511986 3 16588021291074854629
20612939 158 16845279494039773564
21033648 29 18340205172840561433
22122407 14 15912788097701921067
22182313 1 18060421335112253838
23559900 14 18118129074089366886
25147074 1 16660647327717237169
32027 91 18126566713468270218
397830 11 18339915005091955306
5080951 261 17750212799800723333
508706 21 18411704287991051487
5104073 3 17775295949395416314
57527293 21 18263365939713050729

> <PUBCHEM_SHAPE_MULTIPOLES>
620.19
16.1
3.88
2.87
10.37
2.6
-0.11
-2.11
-6.37
-7.83
0.26
4.19
-0.65
6.79

> <PUBCHEM_SHAPE_SELFOVERLAP>
1276.262

> <PUBCHEM_SHAPE_VOLUME>
360.2

> <PUBCHEM_COORDINATE_TYPE>
2
5
10

$$$$
