44571837
  -OEChem-07202400453D

 48 50  0     1  0  0  0  0  0999 V2000
    4.9907   -3.1995   -1.0552 Cl  0  0  0  0  0  0  0  0  0  0  0  0
   -3.0831   -0.7866    0.2393 O   0  0  0  0  0  0  0  0  0  0  0  0
    1.3863    0.8271   -1.9555 O   0  5  0  0  0  0  0  0  0  0  0  0
    0.9733    2.9467   -1.5221 O   0  0  0  0  0  0  0  0  0  0  0  0
   -1.5933    0.7734    1.2254 N   0  0  3  0  0  0  0  0  0  0  0  0
    0.6306    1.0930    1.4926 N   0  0  3  0  0  0  0  0  0  0  0  0
    0.7098    1.7376   -1.4566 N   0  3  0  0  0  0  0  0  0  0  0  0
    4.5412   -0.6847   -0.6180 N   0  0  0  0  0  0  0  0  0  0  0  0
   -2.8819    0.5774    0.5920 C   0  0  1  0  0  0  0  0  0  0  0  0
   -0.4062    1.1062    0.5686 C   0  0  0  0  0  0  0  0  0  0  0  0
   -1.7218    1.3514   -1.5815 C   0  0  1  0  0  0  0  0  0  0  0  0
   -2.9716    1.4503   -0.6687 C   0  0  0  0  0  0  0  0  0  0  0  0
   -1.3694    0.4559    2.6288 C   0  0  0  0  0  0  0  0  0  0  0  0
    0.1254    0.7898    2.8399 C   0  0  0  0  0  0  0  0  0  0  0  0
   -0.4655    1.3641   -0.7502 C   0  0  0  0  0  0  0  0  0  0  0  0
    2.0363    1.3739    1.3324 C   0  0  0  0  0  0  0  0  0  0  0  0
   -1.7754    0.1143   -2.4842 C   0  0  0  0  0  0  0  0  0  0  0  0
   -4.4629   -1.0839    0.0790 C   0  0  0  0  0  0  0  0  0  0  0  0
    2.7492    0.1835    0.7531 C   0  0  0  0  0  0  0  0  0  0  0  0
   -4.6107   -2.5557   -0.2753 C   0  0  0  0  0  0  0  0  0  0  0  0
    2.3179   -1.1108    1.0219 C   0  0  0  0  0  0  0  0  0  0  0  0
    3.8559    0.3414   -0.0655 C   0  0  0  0  0  0  0  0  0  0  0  0
   -6.0642   -2.9446   -0.4775 C   0  0  0  0  0  0  0  0  0  0  0  0
    2.9970   -2.1923    0.4718 C   0  0  0  0  0  0  0  0  0  0  0  0
    4.0927   -1.9281   -0.3342 C   0  0  0  0  0  0  0  0  0  0  0  0
   -3.6609    0.8941    1.2977 H   0  0  0  0  0  0  0  0  0  0  0  0
   -1.7415    2.2365   -2.2323 H   0  0  0  0  0  0  0  0  0  0  0  0
   -3.0493    2.4968   -0.3392 H   0  0  0  0  0  0  0  0  0  0  0  0
   -3.8729    1.2537   -1.2566 H   0  0  0  0  0  0  0  0  0  0  0  0
   -2.0071    1.0538    3.2876 H   0  0  0  0  0  0  0  0  0  0  0  0
   -1.5566   -0.6067    2.8180 H   0  0  0  0  0  0  0  0  0  0  0  0
    0.2256    1.6726    3.4821 H   0  0  0  0  0  0  0  0  0  0  0  0
    0.6535   -0.0420    3.3158 H   0  0  0  0  0  0  0  0  0  0  0  0
    2.1869    2.2678    0.7194 H   0  0  0  0  0  0  0  0  0  0  0  0
    2.4941    1.5981    2.3046 H   0  0  0  0  0  0  0  0  0  0  0  0
   -1.6344   -0.8140   -1.9212 H   0  0  0  0  0  0  0  0  0  0  0  0
   -0.9953    0.1547   -3.2522 H   0  0  0  0  0  0  0  0  0  0  0  0
   -2.7378    0.0534   -3.0036 H   0  0  0  0  0  0  0  0  0  0  0  0
   -4.9957   -0.8783    1.0152 H   0  0  0  0  0  0  0  0  0  0  0  0
   -4.9062   -0.4784   -0.7168 H   0  0  0  0  0  0  0  0  0  0  0  0
   -4.1664   -3.1712    0.5160 H   0  0  0  0  0  0  0  0  0  0  0  0
   -4.0377   -2.7738   -1.1846 H   0  0  0  0  0  0  0  0  0  0  0  0
    1.4656   -1.3255    1.6562 H   0  0  0  0  0  0  0  0  0  0  0  0
    4.2403    1.3265   -0.3112 H   0  0  0  0  0  0  0  0  0  0  0  0
   -6.1408   -4.0069   -0.7296 H   0  0  0  0  0  0  0  0  0  0  0  0
   -6.5150   -2.3692   -1.2924 H   0  0  0  0  0  0  0  0  0  0  0  0
   -6.6477   -2.7685    0.4317 H   0  0  0  0  0  0  0  0  0  0  0  0
    2.6693   -3.2061    0.6762 H   0  0  0  0  0  0  0  0  0  0  0  0
  1 25  1  0  0  0  0
  2  9  1  0  0  0  0
  2 18  1  0  0  0  0
  3  7  1  0  0  0  0
  4  7  2  0  0  0  0
  5  9  1  0  0  0  0
  5 10  1  0  0  0  0
  5 13  1  0  0  0  0
  6 10  1  0  0  0  0
  6 14  1  0  0  0  0
  6 16  1  0  0  0  0
  7 15  1  0  0  0  0
  8 22  1  0  0  0  0
  8 25  2  0  0  0  0
  9 12  1  0  0  0  0
  9 26  1  0  0  0  0
 10 15  2  0  0  0  0
 11 12  1  0  0  0  0
 11 15  1  0  0  0  0
 11 17  1  0  0  0  0
 11 27  1  0  0  0  0
 12 28  1  0  0  0  0
 12 29  1  0  0  0  0
 13 14  1  0  0  0  0
 13 30  1  0  0  0  0
 13 31  1  0  0  0  0
 14 32  1  0  0  0  0
 14 33  1  0  0  0  0
 16 19  1  0  0  0  0
 16 34  1  0  0  0  0
 16 35  1  0  0  0  0
 17 36  1  0  0  0  0
 17 37  1  0  0  0  0
 17 38  1  0  0  0  0
 18 20  1  0  0  0  0
 18 39  1  0  0  0  0
 18 40  1  0  0  0  0
 19 21  1  0  0  0  0
 19 22  2  0  0  0  0
 20 23  1  0  0  0  0
 20 41  1  0  0  0  0
 20 42  1  0  0  0  0
 21 24  2  0  0  0  0
 21 43  1  0  0  0  0
 22 44  1  0  0  0  0
 23 45  1  0  0  0  0
 23 46  1  0  0  0  0
 23 47  1  0  0  0  0
 24 25  1  0  0  0  0
 24 48  1  0  0  0  0
M  CHG  2   3  -1   7   1
M  END
> <PUBCHEM_COMPOUND_CID>
44571837

> <PUBCHEM_CONFORMER_RMSD>
0.8

> <PUBCHEM_CONFORMER_DIVERSEORDER>
2
24
47
45
40
44
69
46
63
41
64
49
61
1
48
16
67
50
34
68
29
51
3
65
9
37
52
27
38
22
54
42
70
17
60
6
14
35
62
33
11
56
53
59
26
7
36
55
19
66
10
25
8
30
20
31
21
58
5
28
43
18
39
12
32
4
13
57
23
15

> <PUBCHEM_MMFF94_PARTIAL_CHARGES>
24
1 -0.18
10 0.2
11 0.14
13 0.37
14 0.37
15 0.07
16 0.51
18 0.28
19 -0.14
2 -0.56
21 -0.15
22 0.16
24 -0.15
25 0.49
3 -0.52
4 -0.52
43 0.15
44 0.15
48 0.15
5 -0.84
6 -0.84
7 0.84
8 -0.62
9 0.65

> <PUBCHEM_EFFECTIVE_ROTOR_COUNT>
7.2

> <PUBCHEM_PHARMACOPHORE_FEATURES>
11
1 2 acceptor
1 23 hydrophobe
1 3 acceptor
1 3 anion
1 4 acceptor
1 5 cation
1 6 cation
1 8 acceptor
5 5 6 10 13 14 rings
6 5 9 10 11 12 15 rings
6 8 19 21 22 24 25 rings

> <PUBCHEM_HEAVY_ATOM_COUNT>
25

> <PUBCHEM_ATOM_DEF_STEREO_COUNT>
0

> <PUBCHEM_ATOM_UDEF_STEREO_COUNT>
2

> <PUBCHEM_BOND_DEF_STEREO_COUNT>
0

> <PUBCHEM_BOND_UDEF_STEREO_COUNT>
0

> <PUBCHEM_ISOTOPIC_ATOM_COUNT>
0

> <PUBCHEM_COMPONENT_COUNT>
1

> <PUBCHEM_CACTVS_TAUTO_COUNT>
1

> <PUBCHEM_CONFORMER_ID>
02A81CBD00000002

> <PUBCHEM_MMFF94_ENERGY>
79.5891

> <PUBCHEM_FEATURE_SELFOVERLAP>
56.041

> <PUBCHEM_SHAPE_FINGERPRINT>
10498660 4 14418142811250464034
11578080 2 17342909605107813320
11796584 16 18201725063550587407
11961588 58 11458422488099446227
12422481 6 14692301607636033719
12633257 1 16056594421762626279
12788726 201 17317328307208829596
12824470 246 18272654532382133667
13103583 49 17346612897598001651
13149001 5 16443924884373739929
13583140 156 17917133014161745113
13965767 371 13110423255345168303
14251764 30 18201164243759066302
14251764 38 11026060344713229359
15163728 17 11242243018531678259
15209294 21 12031792470061686049
15475509 35 17844244245283941699
15475509 8 18040995082490386925
17349148 13 14835824228086358597
17357779 13 17386017173226990672
17492 54 15646772297010301075
19438510 23 8502657004250416151
20775438 99 17462841313623587875
20775530 9 18411694374869422007
21033648 29 13614256849561127451
21475661 188 9583522035520819371
21713013 43 18335698291462070254
22620623 9 17968369036155308021
22907989 373 14562808807744767175
23402539 116 16878223048741130712
23559900 14 18339631322439036213
25222932 49 16912557760176883151
2748010 2 16010455666760829433
2838139 119 7853585586554510147
427121 178 12607139459903937519
46194498 28 17605549058348971591
465052 167 16988003924428603387
484985 159 17766565646829869426
56616090 13 8430321229601994603
58807428 26 14476964493072185589
5895379 119 11534082017557994111
7970288 3 17988364767298021422
90316 7 15769479946417355832

> <PUBCHEM_SHAPE_MULTIPOLES>
478.83
9.85
3.12
2.29
3.03
2.47
0.23
12.61
-1.21
0.23
-0.68
0.32
-1.37
0.51

> <PUBCHEM_SHAPE_SELFOVERLAP>
996.139

> <PUBCHEM_SHAPE_VOLUME>
276.1

> <PUBCHEM_COORDINATE_TYPE>
2
5
10

$$$$
