446598
  -OEChem-07202400343D

 60 61  0     1  0  0  0  0  0999 V2000
    1.0487   -3.1952    1.0773 Cl  0  0  0  0  0  0  0  0  0  0  0  0
    5.0174   -1.2789    1.2474 S   0  0  0  0  0  0  0  0  0  0  0  0
    3.1728   -0.8893   -0.7232 O   0  0  0  0  0  0  0  0  0  0  0  0
    1.8308    1.6225   -1.2616 O   0  0  0  0  0  0  0  0  0  0  0  0
    3.4702    3.1042    0.4194 O   0  0  0  0  0  0  0  0  0  0  0  0
    5.8322    1.4917    0.2262 O   0  0  0  0  0  0  0  0  0  0  0  0
   -1.3054    0.7151   -1.6233 O   0  0  0  0  0  0  0  0  0  0  0  0
   -2.9661    2.0156   -0.0052 N   0  0  1  0  0  0  0  0  0  0  0  0
   -0.3530   -0.4288    0.1663 N   0  0  0  0  0  0  0  0  0  0  0  0
   -4.7226    0.5157   -0.1541 C   0  0  2  0  0  0  0  0  0  0  0  0
   -2.4047    0.7536    0.4910 C   0  0  1  0  0  0  0  0  0  0  0  0
   -3.5541   -0.2562    0.4558 C   0  0  0  0  0  0  0  0  0  0  0  0
   -4.4094    1.9538    0.2346 C   0  0  0  0  0  0  0  0  0  0  0  0
    2.0826   -0.3785    0.0597 C   0  0  2  0  0  0  0  0  0  0  0  0
    0.7997   -0.9576   -0.5285 C   0  0  1  0  0  0  0  0  0  0  0  0
    2.0797    1.1544    0.0662 C   0  0  1  0  0  0  0  0  0  0  0  0
   -6.0815    0.0424    0.3326 C   0  0  0  0  0  0  0  0  0  0  0  0
    3.4300    1.6855    0.5525 C   0  0  1  0  0  0  0  0  0  0  0  0
   -1.3073    0.3643   -0.4463 C   0  0  0  0  0  0  0  0  0  0  0  0
    4.5647    1.0720   -0.2678 C   0  0  2  0  0  0  0  0  0  0  0  0
    4.4745   -0.4608   -0.3013 C   0  0  1  0  0  0  0  0  0  0  0  0
    0.7946   -2.5001   -0.5555 C   0  0  2  0  0  0  0  0  0  0  0  0
   -2.3569    3.1907    0.6028 C   0  0  0  0  0  0  0  0  0  0  0  0
   -6.3018   -1.4385    0.0283 C   0  0  0  0  0  0  0  0  0  0  0  0
   -0.4916   -3.0742   -1.1436 C   0  0  0  0  0  0  0  0  0  0  0  0
   -7.6731   -1.9050    0.4900 C   0  0  0  0  0  0  0  0  0  0  0  0
    5.3295   -2.9183    0.5604 C   0  0  0  0  0  0  0  0  0  0  0  0
   -4.6766    0.4196   -1.2486 H   0  0  0  0  0  0  0  0  0  0  0  0
   -2.0294    0.8454    1.5184 H   0  0  0  0  0  0  0  0  0  0  0  0
   -3.7894   -0.5668    1.4815 H   0  0  0  0  0  0  0  0  0  0  0  0
   -3.3266   -1.1551   -0.1274 H   0  0  0  0  0  0  0  0  0  0  0  0
   -4.6559    2.1409    1.2878 H   0  0  0  0  0  0  0  0  0  0  0  0
   -4.9547    2.6687   -0.3899 H   0  0  0  0  0  0  0  0  0  0  0  0
    2.1994   -0.7117    1.0973 H   0  0  0  0  0  0  0  0  0  0  0  0
    0.7351   -0.6499   -1.5809 H   0  0  0  0  0  0  0  0  0  0  0  0
    1.2834    1.5606    0.6986 H   0  0  0  0  0  0  0  0  0  0  0  0
   -6.8666    0.6401   -0.1469 H   0  0  0  0  0  0  0  0  0  0  0  0
   -6.1760    0.2081    1.4133 H   0  0  0  0  0  0  0  0  0  0  0  0
    3.5721    1.4627    1.6164 H   0  0  0  0  0  0  0  0  0  0  0  0
    4.4982    1.4578   -1.2929 H   0  0  0  0  0  0  0  0  0  0  0  0
   -0.4596   -0.6687    1.1477 H   0  0  0  0  0  0  0  0  0  0  0  0
    5.1786   -0.8002   -1.0696 H   0  0  0  0  0  0  0  0  0  0  0  0
    1.6329   -2.8571   -1.1639 H   0  0  0  0  0  0  0  0  0  0  0  0
   -1.2830    3.2229    0.3885 H   0  0  0  0  0  0  0  0  0  0  0  0
   -2.4907    3.2137    1.6903 H   0  0  0  0  0  0  0  0  0  0  0  0
   -2.7921    4.1048    0.1844 H   0  0  0  0  0  0  0  0  0  0  0  0
   -6.2068   -1.6155   -1.0495 H   0  0  0  0  0  0  0  0  0  0  0  0
   -5.5452   -2.0543    0.5265 H   0  0  0  0  0  0  0  0  0  0  0  0
   -0.6765   -2.6648   -2.1424 H   0  0  0  0  0  0  0  0  0  0  0  0
   -0.4195   -4.1631   -1.2424 H   0  0  0  0  0  0  0  0  0  0  0  0
   -1.3647   -2.8561   -0.5198 H   0  0  0  0  0  0  0  0  0  0  0  0
    2.4089    1.1360   -1.8728 H   0  0  0  0  0  0  0  0  0  0  0  0
    2.7302    3.4671    0.9354 H   0  0  0  0  0  0  0  0  0  0  0  0
   -7.7889   -1.7739    1.5706 H   0  0  0  0  0  0  0  0  0  0  0  0
   -7.8102   -2.9662    0.2599 H   0  0  0  0  0  0  0  0  0  0  0  0
   -8.4679   -1.3436   -0.0117 H   0  0  0  0  0  0  0  0  0  0  0  0
    6.5152    1.0682   -0.3213 H   0  0  0  0  0  0  0  0  0  0  0  0
    5.6491   -3.5885    1.3630 H   0  0  0  0  0  0  0  0  0  0  0  0
    6.1241   -2.8762   -0.1891 H   0  0  0  0  0  0  0  0  0  0  0  0
    4.4207   -3.3276    0.1118 H   0  0  0  0  0  0  0  0  0  0  0  0
  1 22  1  0  0  0  0
  2 21  1  0  0  0  0
  2 27  1  0  0  0  0
  3 14  1  0  0  0  0
  3 21  1  0  0  0  0
  4 16  1  0  0  0  0
  4 52  1  0  0  0  0
  5 18  1  0  0  0  0
  5 53  1  0  0  0  0
  6 20  1  0  0  0  0
  6 57  1  0  0  0  0
  7 19  2  0  0  0  0
  8 11  1  0  0  0  0
  8 13  1  0  0  0  0
  8 23  1  0  0  0  0
  9 15  1  0  0  0  0
  9 19  1  0  0  0  0
  9 41  1  0  0  0  0
 10 12  1  0  0  0  0
 10 13  1  0  0  0  0
 10 17  1  0  0  0  0
 10 28  1  0  0  0  0
 11 12  1  0  0  0  0
 11 19  1  0  0  0  0
 11 29  1  0  0  0  0
 12 30  1  0  0  0  0
 12 31  1  0  0  0  0
 13 32  1  0  0  0  0
 13 33  1  0  0  0  0
 14 15  1  0  0  0  0
 14 16  1  0  0  0  0
 14 34  1  0  0  0  0
 15 22  1  0  0  0  0
 15 35  1  0  0  0  0
 16 18  1  0  0  0  0
 16 36  1  0  0  0  0
 17 24  1  0  0  0  0
 17 37  1  0  0  0  0
 17 38  1  0  0  0  0
 18 20  1  0  0  0  0
 18 39  1  0  0  0  0
 20 21  1  0  0  0  0
 20 40  1  0  0  0  0
 21 42  1  0  0  0  0
 22 25  1  0  0  0  0
 22 43  1  0  0  0  0
 23 44  1  0  0  0  0
 23 45  1  0  0  0  0
 23 46  1  0  0  0  0
 24 26  1  0  0  0  0
 24 47  1  0  0  0  0
 24 48  1  0  0  0  0
 25 49  1  0  0  0  0
 25 50  1  0  0  0  0
 25 51  1  0  0  0  0
 26 54  1  0  0  0  0
 26 55  1  0  0  0  0
 26 56  1  0  0  0  0
 27 58  1  0  0  0  0
 27 59  1  0  0  0  0
 27 60  1  0  0  0  0
M  END
> <PUBCHEM_COMPOUND_CID>
446598

> <PUBCHEM_CONFORMER_RMSD>
1

> <PUBCHEM_CONFORMER_DIVERSEORDER>
1
106
21
96
87
65
55
124
33
112
61
127
118
66
54
116
95
83
126
138
62
88
128
46
81
103
58
113
134
130
114
52
38
89
45
78
19
139
69
123
74
42
12
97
17
109
108
13
71
76
3
136
8
57
135
4
9
64
73
14
100
86
49
48
129
36
5
82
91
141
93
70
43
117
142
44
99
140
37
133
53
98
107
15
85
31
20
50
28
111
59
51
75
68
137
56
24
40
102
30
67
120
122
77
125
6
60
7
41
11
101
79
94
115
132
72
105
39
63
29
121
27
92
84
119
10
32
80
26
25
18
16
131
23
34
22
104
2
110
90
47
35

> <PUBCHEM_MMFF94_PARTIAL_CHARGES>
25
1 -0.29
11 0.33
13 0.27
14 0.28
15 0.3
16 0.28
18 0.28
19 0.57
2 -0.46
20 0.28
21 0.51
22 0.29
23 0.27
27 0.23
3 -0.56
4 -0.68
41 0.37
5 -0.68
52 0.4
53 0.4
57 0.4
6 -0.68
7 -0.57
8 -0.81
9 -0.73

> <PUBCHEM_EFFECTIVE_ROTOR_COUNT>
10.2

> <PUBCHEM_PHARMACOPHORE_FEATURES>
14
1 26 hydrophobe
1 27 hydrophobe
1 3 acceptor
1 4 acceptor
1 4 donor
1 5 acceptor
1 5 donor
1 6 acceptor
1 6 donor
1 7 acceptor
1 8 cation
1 9 donor
5 8 10 11 12 13 rings
6 3 14 16 18 20 21 rings

> <PUBCHEM_HEAVY_ATOM_COUNT>
27

> <PUBCHEM_ATOM_DEF_STEREO_COUNT>
9

> <PUBCHEM_ATOM_UDEF_STEREO_COUNT>
0

> <PUBCHEM_BOND_DEF_STEREO_COUNT>
0

> <PUBCHEM_BOND_UDEF_STEREO_COUNT>
0

> <PUBCHEM_ISOTOPIC_ATOM_COUNT>
0

> <PUBCHEM_COMPONENT_COUNT>
1

> <PUBCHEM_CACTVS_TAUTO_COUNT>
2

> <PUBCHEM_CONFORMER_ID>
0006D08600000001

> <PUBCHEM_MMFF94_ENERGY>
60.6728

> <PUBCHEM_FEATURE_SELFOVERLAP>
71.062

> <PUBCHEM_SHAPE_FINGERPRINT>
10 15 18338510971698882680
10090160 65 18335982056130902093
10835480 77 18337386055692874549
1100329 8 18124878121400210141
11421498 54 17060069094667827971
11488393 25 17487357966233419567
11578080 2 16808410562577987773
11646440 116 17346877840881021632
12166972 35 18041001756389939365
12403260 363 18410858728646013337
12616971 3 17774996895449456581
128238 76 18342171215668910671
13140716 1 18409725201214934442
13533116 47 18407759248374845816
13782708 43 17968660402099193178
14251764 18 18260545620085147418
14341114 176 18334018271869950689
14466204 15 18196648489511079656
1454969 45 18271805774647787855
14787075 74 18200875184011859529
14955137 171 18195804064570748698
15927050 60 17406836658392269645
17349148 13 17894921728413608989
17492 89 18268432330965933151
18222031 100 16877944944733589709
19377110 9 18272097067719069531
20028762 73 18413669097557781095
20739085 24 18115593639220662308
21197605 99 18411141376413169907
21315763 129 18339361851141336017
21315764 268 18408599270863525717
22079108 93 18272647986714720133
23558518 356 17976534233062978958
23559900 14 18124309411932431633
335352 9 18412548734991800668
350125 39 18412261748443076558
392239 28 18341622512142479433
4340502 62 18272093824734086367
474229 33 18341333370586088359
5104073 3 18342178839050966025
59755656 215 18412834593990916974

> <PUBCHEM_SHAPE_MULTIPOLES>
522.06
15.41
3.7
1.02
15.01
0.56
-0.09
3.44
3.46
-1.28
0.43
-0.38
0.27
-0.48

> <PUBCHEM_SHAPE_SELFOVERLAP>
1026.898

> <PUBCHEM_SHAPE_VOLUME>
317

> <PUBCHEM_COORDINATE_TYPE>
2
5
10

$$$$
