46944253
  -OEChem-07202400583D

 39 41  0     0  0  0  0  0  0999 V2000
   -3.2540    2.7833    1.7295 Cl  0  0  0  0  0  0  0  0  0  0  0  0
    3.1595    2.2478    1.9150 Cl  0  0  0  0  0  0  0  0  0  0  0  0
    3.1365    1.5805   -1.2585 S   0  0  0  0  0  0  0  0  0  0  0  0
   -7.2026   -0.3307    1.0039 F   0  0  0  0  0  0  0  0  0  0  0  0
   -6.9648   -1.1662   -0.9956 F   0  0  0  0  0  0  0  0  0  0  0  0
   -6.3718   -2.3302    0.7496 F   0  0  0  0  0  0  0  0  0  0  0  0
    3.4126    1.0541   -2.5812 O   0  0  0  0  0  0  0  0  0  0  0  0
    3.4855    2.9470   -0.9214 O   0  0  0  0  0  0  0  0  0  0  0  0
    5.8536   -2.5744   -0.0921 O   0  0  0  0  0  0  0  0  0  0  0  0
    1.1677   -0.6759   -2.0795 O   0  0  0  0  0  0  0  0  0  0  0  0
   -2.7732   -0.4301   -0.5736 N   0  0  0  0  0  0  0  0  0  0  0  0
    1.4876    1.3079   -0.8755 N   0  0  0  0  0  0  0  0  0  0  0  0
   -1.2338    1.1116   -0.0743 N   0  0  0  0  0  0  0  0  0  0  0  0
   -2.4874    0.7473    0.1122 C   0  0  0  0  0  0  0  0  0  0  0  0
   -0.6948    0.1549   -0.8954 C   0  0  0  0  0  0  0  0  0  0  0  0
   -1.6223   -0.8068   -1.2175 C   0  0  0  0  0  0  0  0  0  0  0  0
   -4.0195   -1.0504   -0.5608 C   0  0  0  0  0  0  0  0  0  0  0  0
   -5.0246   -0.5020    0.1475 C   0  0  0  0  0  0  0  0  0  0  0  0
    3.9374    0.5423   -0.0736 C   0  0  0  0  0  0  0  0  0  0  0  0
   -3.5528    1.3263    0.8617 C   0  0  0  0  0  0  0  0  0  0  0  0
    0.6668    0.1969   -1.3335 C   0  0  0  0  0  0  0  0  0  0  0  0
   -4.7635    0.7354    0.8823 C   0  0  0  0  0  0  0  0  0  0  0  0
    4.5803   -0.6052   -0.5378 C   0  0  0  0  0  0  0  0  0  0  0  0
    3.9404    0.8404    1.2890 C   0  0  0  0  0  0  0  0  0  0  0  0
   -6.3983   -1.0860    0.2268 C   0  0  0  0  0  0  0  0  0  0  0  0
    5.2260   -1.4546    0.3605 C   0  0  0  0  0  0  0  0  0  0  0  0
    4.5862   -0.0089    2.1876 C   0  0  0  0  0  0  0  0  0  0  0  0
    5.2291   -1.1565    1.7233 C   0  0  0  0  0  0  0  0  0  0  0  0
    6.4940   -3.3980    0.8813 C   0  0  0  0  0  0  0  0  0  0  0  0
   -1.5707   -1.6982   -1.8283 H   0  0  0  0  0  0  0  0  0  0  0  0
   -4.1307   -1.9649   -1.1319 H   0  0  0  0  0  0  0  0  0  0  0  0
    1.0286    2.0258   -0.2989 H   0  0  0  0  0  0  0  0  0  0  0  0
   -5.5734    1.1779    1.4539 H   0  0  0  0  0  0  0  0  0  0  0  0
    4.5912   -0.8637   -1.5928 H   0  0  0  0  0  0  0  0  0  0  0  0
    4.5974    0.2095    3.2526 H   0  0  0  0  0  0  0  0  0  0  0  0
    5.7110   -1.7719    2.4752 H   0  0  0  0  0  0  0  0  0  0  0  0
    7.3116   -2.8681    1.3817 H   0  0  0  0  0  0  0  0  0  0  0  0
    5.7730   -3.8154    1.5924 H   0  0  0  0  0  0  0  0  0  0  0  0
    6.9407   -4.2425    0.3465 H   0  0  0  0  0  0  0  0  0  0  0  0
  1 20  1  0  0  0  0
  2 24  1  0  0  0  0
  3  7  2  0  0  0  0
  3  8  2  0  0  0  0
  3 12  1  0  0  0  0
  3 19  1  0  0  0  0
  4 25  1  0  0  0  0
  5 25  1  0  0  0  0
  6 25  1  0  0  0  0
  9 26  1  0  0  0  0
  9 29  1  0  0  0  0
 10 21  2  0  0  0  0
 11 14  1  0  0  0  0
 11 16  1  0  0  0  0
 11 17  1  0  0  0  0
 12 21  1  0  0  0  0
 12 32  1  0  0  0  0
 13 14  2  0  0  0  0
 13 15  1  0  0  0  0
 14 20  1  0  0  0  0
 15 16  2  0  0  0  0
 15 21  1  0  0  0  0
 16 30  1  0  0  0  0
 17 18  2  0  0  0  0
 17 31  1  0  0  0  0
 18 22  1  0  0  0  0
 18 25  1  0  0  0  0
 19 23  1  0  0  0  0
 19 24  2  0  0  0  0
 20 22  2  0  0  0  0
 22 33  1  0  0  0  0
 23 26  2  0  0  0  0
 23 34  1  0  0  0  0
 24 27  1  0  0  0  0
 26 28  1  0  0  0  0
 27 28  2  0  0  0  0
 27 35  1  0  0  0  0
 28 36  1  0  0  0  0
 29 37  1  0  0  0  0
 29 38  1  0  0  0  0
 29 39  1  0  0  0  0
M  END
> <PUBCHEM_COMPOUND_CID>
46944253

> <PUBCHEM_CONFORMER_RMSD>
0.8

> <PUBCHEM_CONFORMER_DIVERSEORDER>
1
120
101
200
173
275
264
63
226
110
104
55
87
4
219
191
259
231
224
156
215
217
175
209
172
161
268
39
5
141
15
50
100
261
68
126
256
153
222
189
197
58
80
103
135
225
19
181
112
88
159
67
118
244
69
195
90
29
152
235
89
174
213
21
204
123
148
40
272
237
236
179
95
84
216
203
64
169
116
144
115
187
14
239
194
108
23
98
199
258
37
8
48
245
24
42
59
145
248
262
232
158
114
176
271
92
99
193
273
109
207
171
202
30
140
269
185
77
251
105
170
233
243
255
186
16
119
249
238
78
274
247
180
43
27
10
250
267
253
182
263
127
34
157
234
70
26
242
125
266
276
82
188
138
228
192
166
139
72
147
20
196
76
151
51
270
265
177
278
132
83
149
260
137
184
240
129
190
164
38
214
133
74
18
165
218
107
160
66
208
227
57
49
279
93
35
277
131
230
53
97
91
206
210
25
257
229
62
81
178
33
211
220
111
221
121
280
13
96
154
212
3
223
252
47
11
183
162
65
150
168
155
75
201
54
9
6
167
52
128
85
142
122
41
60
130
106
254
61
86
73
246
17
117
2
241
113
124
22
198
32
28
56
31
36
134
102
44
71
163
45
46
12
205
136
79
143
7
94
146

> <PUBCHEM_MMFF94_PARTIAL_CHARGES>
36
1 -0.14
10 -0.57
11 0.33
12 -0.79
13 -0.57
14 0.14
15 0.14
16 -0.3
17 -0.18
18 -0.14
19 -0.01
2 -0.18
20 0.19
21 0.89
22 -0.15
23 -0.15
24 0.18
25 1.16
26 0.08
27 -0.15
28 -0.15
29 0.28
3 1.45
30 0.15
31 0.15
32 0.42
33 0.15
34 0.15
35 0.15
36 0.15
4 -0.34
5 -0.34
6 -0.34
7 -0.65
8 -0.65
9 -0.36

> <PUBCHEM_EFFECTIVE_ROTOR_COUNT>
6

> <PUBCHEM_PHARMACOPHORE_FEATURES>
9
1 10 acceptor
1 12 donor
1 7 acceptor
1 8 acceptor
1 9 acceptor
3 11 13 14 cation
5 11 13 14 15 16 rings
6 11 14 17 18 20 22 rings
6 19 23 24 26 27 28 rings

> <PUBCHEM_HEAVY_ATOM_COUNT>
29

> <PUBCHEM_ATOM_DEF_STEREO_COUNT>
0

> <PUBCHEM_ATOM_UDEF_STEREO_COUNT>
0

> <PUBCHEM_BOND_DEF_STEREO_COUNT>
0

> <PUBCHEM_BOND_UDEF_STEREO_COUNT>
0

> <PUBCHEM_ISOTOPIC_ATOM_COUNT>
0

> <PUBCHEM_COMPONENT_COUNT>
1

> <PUBCHEM_CACTVS_TAUTO_COUNT>
2

> <PUBCHEM_CONFORMER_ID>
02CC4FFD00000001

> <PUBCHEM_MMFF94_ENERGY>
52.5507

> <PUBCHEM_FEATURE_SELFOVERLAP>
45.806

> <PUBCHEM_SHAPE_FINGERPRINT>
10 15 17346876771159955251
10319926 262 17988368061383988604
10692045 39 17275106077086077438
10928967 22 17095795539079712490
11059845 2 17839466579419351376
11646440 116 15626223503056301418
11954058 11 18260267426347633822
12107183 9 18122350077521830464
12166972 35 18041001765016738717
12596602 18 18409164419908813825
12925494 130 17487062146213119945
13150687 139 11602828948536755418
13533116 47 18186523241053652276
13617811 41 11242241979323886887
13668630 136 17312824883548192875
13782708 43 17676485112162090099
13914758 101 17895187776179191373
14211702 104 17749962196975681155
14251764 30 18042119852789461506
14461889 52 14835836339540459463
14931854 50 13768215926812446874
15183329 4 12035442840266105743
15188451 53 18411693275335733907
15475509 35 18337946806327719258
17349148 13 18337117842868051829
1813 80 17967810497618661428
18222031 100 17022900146955669004
1979834 28 15698004041755254424
20028762 73 18333448733717019498
21033648 29 15984826982382226529
21344244 78 18410844482920630864
21792934 111 17988649558864352961
21987483 16 17772174573945787207
22061861 79 16370720452821999639
2215653 11 14923941262878055273
23522609 53 17900577543250089620
23559900 14 13118292489892841687
23569914 2 13827877510283515971
2838139 119 10663804283892093314
3472631 163 9943517527512345578
34797466 226 14851892503355753855
3680242 22 17703793643057078841
3737641 26 17901098621804627746
3886686 26 17479181864265996490
393628 194 11958571614345076146
4112364 45 15912460512383549514
4516262 110 18191584366645462940
465052 167 18260831492855584070
5104073 3 18131077034412952201
57359948 33 12035712246105373750
7970288 3 18041837295402163418
8509985 295 17632854227139472848
960060 61 14056998313213493584

> <PUBCHEM_SHAPE_MULTIPOLES>
544.15
18.48
2.79
1.96
13.93
0.06
0.26
-12.22
-7.36
-2.54
-0.94
-2.27
0.59
-1.91

> <PUBCHEM_SHAPE_SELFOVERLAP>
1155.284

> <PUBCHEM_SHAPE_VOLUME>
309.4

> <PUBCHEM_COORDINATE_TYPE>
2
5
10

$$$$
