5125
  -OEChem-07192422173D

 44 43  0     0  0  0  0  0  0999 V2000
   -0.2055    1.2903    1.0166 S   0  0  0  0  0  0  0  0  0  0  0  0
    2.1953   -0.7397   -0.4086 S   0  0  0  0  0  0  0  0  0  0  0  0
   -1.0380   -1.8495   -0.1513 S   0  0  0  0  0  0  0  0  0  0  0  0
    0.4565   -0.6937    0.7775 P   0  0  0  0  0  0  0  0  0  0  0  0
    0.7657   -1.2801    2.1322 O   0  0  0  0  0  0  0  0  0  0  0  0
   -1.0484    3.3615   -0.6391 C   0  0  0  0  0  0  0  0  0  0  0  0
    4.7611    0.3265   -0.2542 C   0  0  0  0  0  0  0  0  0  0  0  0
   -3.6662   -2.5665    0.4163 C   0  0  0  0  0  0  0  0  0  0  0  0
   -0.5521    1.9158   -0.6388 C   0  0  0  0  0  0  0  0  0  0  0  0
    3.4188    0.2498    0.4729 C   0  0  0  0  0  0  0  0  0  0  0  0
   -2.4707   -1.7720    0.9417 C   0  0  0  0  0  0  0  0  0  0  0  0
   -2.3679    3.5592    0.1119 C   0  0  0  0  0  0  0  0  0  0  0  0
    5.4445   -1.0324   -0.4292 C   0  0  0  0  0  0  0  0  0  0  0  0
   -4.2002   -2.0589   -0.9258 C   0  0  0  0  0  0  0  0  0  0  0  0
   -2.8629    4.9925   -0.0081 C   0  0  0  0  0  0  0  0  0  0  0  0
    6.8178   -0.8826   -1.0661 C   0  0  0  0  0  0  0  0  0  0  0  0
   -5.4478   -2.8203   -1.3479 C   0  0  0  0  0  0  0  0  0  0  0  0
   -1.1815    3.6745   -1.6825 H   0  0  0  0  0  0  0  0  0  0  0  0
   -0.2789    4.0192   -0.2150 H   0  0  0  0  0  0  0  0  0  0  0  0
    5.4220    0.9866    0.3218 H   0  0  0  0  0  0  0  0  0  0  0  0
    4.6268    0.8021   -1.2342 H   0  0  0  0  0  0  0  0  0  0  0  0
   -4.4674   -2.5083    1.1640 H   0  0  0  0  0  0  0  0  0  0  0  0
   -3.3994   -3.6276    0.3311 H   0  0  0  0  0  0  0  0  0  0  0  0
   -1.2974    1.2683   -1.1114 H   0  0  0  0  0  0  0  0  0  0  0  0
    0.3645    1.8507   -1.2334 H   0  0  0  0  0  0  0  0  0  0  0  0
    3.5578   -0.1756    1.4722 H   0  0  0  0  0  0  0  0  0  0  0  0
    3.0215    1.2618    0.5989 H   0  0  0  0  0  0  0  0  0  0  0  0
   -2.7546   -0.7235    1.0773 H   0  0  0  0  0  0  0  0  0  0  0  0
   -2.1773   -2.1623    1.9216 H   0  0  0  0  0  0  0  0  0  0  0  0
   -3.1296    2.8818   -0.2916 H   0  0  0  0  0  0  0  0  0  0  0  0
   -2.2523    3.3239    1.1749 H   0  0  0  0  0  0  0  0  0  0  0  0
    5.5532   -1.5215    0.5459 H   0  0  0  0  0  0  0  0  0  0  0  0
    4.8436   -1.6944   -1.0613 H   0  0  0  0  0  0  0  0  0  0  0  0
   -4.4397   -0.9918   -0.8505 H   0  0  0  0  0  0  0  0  0  0  0  0
   -3.4478   -2.1695   -1.7136 H   0  0  0  0  0  0  0  0  0  0  0  0
   -2.1362    5.6948    0.4127 H   0  0  0  0  0  0  0  0  0  0  0  0
   -3.8063    5.1143    0.5334 H   0  0  0  0  0  0  0  0  0  0  0  0
   -3.0358    5.2621   -1.0549 H   0  0  0  0  0  0  0  0  0  0  0  0
    6.7426   -0.4220   -2.0563 H   0  0  0  0  0  0  0  0  0  0  0  0
    7.2907   -1.8629   -1.1822 H   0  0  0  0  0  0  0  0  0  0  0  0
    7.4725   -0.2616   -0.4465 H   0  0  0  0  0  0  0  0  0  0  0  0
   -5.2360   -3.8884   -1.4605 H   0  0  0  0  0  0  0  0  0  0  0  0
   -5.8151   -2.4435   -2.3076 H   0  0  0  0  0  0  0  0  0  0  0  0
   -6.2476   -2.7038   -0.6096 H   0  0  0  0  0  0  0  0  0  0  0  0
  1  4  1  0  0  0  0
  1  9  1  0  0  0  0
  2  4  1  0  0  0  0
  2 10  1  0  0  0  0
  3  4  1  0  0  0  0
  3 11  1  0  0  0  0
  4  5  2  0  0  0  0
  6  9  1  0  0  0  0
  6 12  1  0  0  0  0
  6 18  1  0  0  0  0
  6 19  1  0  0  0  0
  7 10  1  0  0  0  0
  7 13  1  0  0  0  0
  7 20  1  0  0  0  0
  7 21  1  0  0  0  0
  8 11  1  0  0  0  0
  8 14  1  0  0  0  0
  8 22  1  0  0  0  0
  8 23  1  0  0  0  0
  9 24  1  0  0  0  0
  9 25  1  0  0  0  0
 10 26  1  0  0  0  0
 10 27  1  0  0  0  0
 11 28  1  0  0  0  0
 11 29  1  0  0  0  0
 12 15  1  0  0  0  0
 12 30  1  0  0  0  0
 12 31  1  0  0  0  0
 13 16  1  0  0  0  0
 13 32  1  0  0  0  0
 13 33  1  0  0  0  0
 14 17  1  0  0  0  0
 14 34  1  0  0  0  0
 14 35  1  0  0  0  0
 15 36  1  0  0  0  0
 15 37  1  0  0  0  0
 15 38  1  0  0  0  0
 16 39  1  0  0  0  0
 16 40  1  0  0  0  0
 16 41  1  0  0  0  0
 17 42  1  0  0  0  0
 17 43  1  0  0  0  0
 17 44  1  0  0  0  0
M  END
> <PUBCHEM_COMPOUND_CID>
5125

> <PUBCHEM_CONFORMER_RMSD>
1.2

> <PUBCHEM_CONFORMER_DIVERSEORDER>
1
38
45
21
13
16
35
27
40
6
34
37
30
25
26
36
42
18
31
44
17
32
46
4
20
14
41
50
12
15
11
3
43
47
33
48
7
23
49
29
39
5
2
10
24
28
9
22
19
8

> <PUBCHEM_MMFF94_PARTIAL_CHARGES>
8
1 -0.48
10 0.23
11 0.23
2 -0.48
3 -0.48
4 1.44
5 -0.7
9 0.23

> <PUBCHEM_EFFECTIVE_ROTOR_COUNT>
12

> <PUBCHEM_PHARMACOPHORE_FEATURES>
4
1 15 hydrophobe
1 16 hydrophobe
1 17 hydrophobe
1 5 acceptor

> <PUBCHEM_HEAVY_ATOM_COUNT>
17

> <PUBCHEM_ATOM_DEF_STEREO_COUNT>
0

> <PUBCHEM_ATOM_UDEF_STEREO_COUNT>
0

> <PUBCHEM_BOND_DEF_STEREO_COUNT>
0

> <PUBCHEM_BOND_UDEF_STEREO_COUNT>
0

> <PUBCHEM_ISOTOPIC_ATOM_COUNT>
0

> <PUBCHEM_COMPONENT_COUNT>
1

> <PUBCHEM_CACTVS_TAUTO_COUNT>
1

> <PUBCHEM_CONFORMER_ID>
0000140500000001

> <PUBCHEM_MMFF94_ENERGY>
-4.045

> <PUBCHEM_FEATURE_SELFOVERLAP>
20.298

> <PUBCHEM_SHAPE_FINGERPRINT>
12788726 201 18333445448161516018
12954195 1 18410855413189476700
13540713 5 17969492702932683074
14508225 48 18336547217454748532
17539 30 18411699868126649821
22620623 9 18342187617562879996
23402539 116 18412550933002680242
23419403 2 17489293231156709704
23557571 272 18410013238695938942
23558518 356 18115600240168742506
266924 1 17968648316388211850
266924 87 18336263449092530870
5969126 39 18413386557713114854
59755656 520 18118124663099938036
68521 5 18409729577459301650

> <PUBCHEM_SHAPE_MULTIPOLES>
359.38
12.1
5.5
1.29
17.08
8.72
0.32
-9.82
-5.82
-11.33
-0.9
-0.26
-0.61
-0.51

> <PUBCHEM_SHAPE_SELFOVERLAP>
593.854

> <PUBCHEM_SHAPE_VOLUME>
248.3

> <PUBCHEM_COORDINATE_TYPE>
2
5
10

$$$$
