5311017
  -OEChem-07202400383D

 39 40  0     1  0  0  0  0  0999 V2000
   -0.6841    0.1942    0.1886 N   0  0  2  0  0  0  0  0  0  0  0  0
    0.6827    0.4002   -0.2992 C   0  0  2  0  0  0  0  0  0  0  0  0
    1.6712    0.2720    0.8742 C   0  0  0  0  0  0  0  0  0  0  0  0
   -1.6255    0.1805   -0.9291 C   0  0  0  0  0  0  0  0  0  0  0  0
    0.7508    1.7692   -0.9761 C   0  0  0  0  0  0  0  0  0  0  0  0
    3.0822   -0.0502    0.4439 C   0  0  0  0  0  0  0  0  0  0  0  0
   -1.0425    1.2351    1.1496 C   0  0  0  0  0  0  0  0  0  0  0  0
   -3.0351   -0.0857   -0.4718 C   0  0  0  0  0  0  0  0  0  0  0  0
    3.4708   -1.3753    0.3279 C   0  0  0  0  0  0  0  0  0  0  0  0
    3.9625    0.9851    0.1722 C   0  0  0  0  0  0  0  0  0  0  0  0
   -3.4949   -1.3933   -0.4008 C   0  0  0  0  0  0  0  0  0  0  0  0
   -3.8548    0.9801   -0.1276 C   0  0  0  0  0  0  0  0  0  0  0  0
    4.7741   -1.6731   -0.0699 C   0  0  0  0  0  0  0  0  0  0  0  0
    5.2658    0.6871   -0.2257 C   0  0  0  0  0  0  0  0  0  0  0  0
   -4.8007   -1.6402    0.0228 C   0  0  0  0  0  0  0  0  0  0  0  0
   -5.1606    0.7332    0.2962 C   0  0  0  0  0  0  0  0  0  0  0  0
    5.6715   -0.6420   -0.3467 C   0  0  0  0  0  0  0  0  0  0  0  0
   -5.6335   -0.5770    0.3715 C   0  0  0  0  0  0  0  0  0  0  0  0
    0.9156   -0.3770   -1.0392 H   0  0  0  0  0  0  0  0  0  0  0  0
    1.3451   -0.5223    1.5611 H   0  0  0  0  0  0  0  0  0  0  0  0
    1.7084    1.1882    1.4778 H   0  0  0  0  0  0  0  0  0  0  0  0
   -1.3418   -0.5979   -1.6504 H   0  0  0  0  0  0  0  0  0  0  0  0
   -1.6612    1.1158   -1.4978 H   0  0  0  0  0  0  0  0  0  0  0  0
    1.7615    1.9177   -1.3752 H   0  0  0  0  0  0  0  0  0  0  0  0
    0.5822    2.6119   -0.2989 H   0  0  0  0  0  0  0  0  0  0  0  0
    0.1075    1.8779   -1.8518 H   0  0  0  0  0  0  0  0  0  0  0  0
   -0.2979    1.3835    1.9363 H   0  0  0  0  0  0  0  0  0  0  0  0
   -1.9295    0.9323    1.7182 H   0  0  0  0  0  0  0  0  0  0  0  0
   -1.2555    2.2114    0.7004 H   0  0  0  0  0  0  0  0  0  0  0  0
    2.7785   -2.1854    0.5385 H   0  0  0  0  0  0  0  0  0  0  0  0
    3.6598    2.0238    0.2680 H   0  0  0  0  0  0  0  0  0  0  0  0
   -2.8541   -2.2289   -0.6679 H   0  0  0  0  0  0  0  0  0  0  0  0
   -3.5084    2.0073   -0.1947 H   0  0  0  0  0  0  0  0  0  0  0  0
    5.0899   -2.7079   -0.1649 H   0  0  0  0  0  0  0  0  0  0  0  0
    5.9652    1.4899   -0.4402 H   0  0  0  0  0  0  0  0  0  0  0  0
   -5.1689   -2.6602    0.0817 H   0  0  0  0  0  0  0  0  0  0  0  0
   -5.8104    1.5611    0.5644 H   0  0  0  0  0  0  0  0  0  0  0  0
    6.6863   -0.8739   -0.6565 H   0  0  0  0  0  0  0  0  0  0  0  0
   -6.6504   -0.7691    0.7008 H   0  0  0  0  0  0  0  0  0  0  0  0
  1  2  1  0  0  0  0
  1  4  1  0  0  0  0
  1  7  1  0  0  0  0
  2  3  1  0  0  0  0
  2  5  1  0  0  0  0
  2 19  1  0  0  0  0
  3  6  1  0  0  0  0
  3 20  1  0  0  0  0
  3 21  1  0  0  0  0
  4  8  1  0  0  0  0
  4 22  1  0  0  0  0
  4 23  1  0  0  0  0
  5 24  1  0  0  0  0
  5 25  1  0  0  0  0
  5 26  1  0  0  0  0
  6  9  2  0  0  0  0
  6 10  1  0  0  0  0
  7 27  1  0  0  0  0
  7 28  1  0  0  0  0
  7 29  1  0  0  0  0
  8 11  2  0  0  0  0
  8 12  1  0  0  0  0
  9 13  1  0  0  0  0
  9 30  1  0  0  0  0
 10 14  2  0  0  0  0
 10 31  1  0  0  0  0
 11 15  1  0  0  0  0
 11 32  1  0  0  0  0
 12 16  2  0  0  0  0
 12 33  1  0  0  0  0
 13 17  2  0  0  0  0
 13 34  1  0  0  0  0
 14 17  1  0  0  0  0
 14 35  1  0  0  0  0
 15 18  2  0  0  0  0
 15 36  1  0  0  0  0
 16 18  1  0  0  0  0
 16 37  1  0  0  0  0
 17 38  1  0  0  0  0
 18 39  1  0  0  0  0
M  END
> <PUBCHEM_COMPOUND_CID>
5311017

> <PUBCHEM_CONFORMER_RMSD>
0.6

> <PUBCHEM_CONFORMER_DIVERSEORDER>
1
20
28
2
27
21
9
38
8
7
29
5
15
34
12
10
36
32
40
3
22
16
4
17
19
11
26
24
18
35
25
33
6
13
30
14
31
37
23
39

> <PUBCHEM_MMFF94_PARTIAL_CHARGES>
27
1 -0.81
10 -0.15
11 -0.15
12 -0.15
13 -0.15
14 -0.15
15 -0.15
16 -0.15
17 -0.15
18 -0.15
2 0.27
3 0.14
30 0.15
31 0.15
32 0.15
33 0.15
34 0.15
35 0.15
36 0.15
37 0.15
38 0.15
39 0.15
4 0.41
6 -0.14
7 0.27
8 -0.14
9 -0.15

> <PUBCHEM_EFFECTIVE_ROTOR_COUNT>
5

> <PUBCHEM_PHARMACOPHORE_FEATURES>
3
1 1 cation
6 6 9 10 13 14 17 rings
6 8 11 12 15 16 18 rings

> <PUBCHEM_HEAVY_ATOM_COUNT>
18

> <PUBCHEM_ATOM_DEF_STEREO_COUNT>
1

> <PUBCHEM_ATOM_UDEF_STEREO_COUNT>
0

> <PUBCHEM_BOND_DEF_STEREO_COUNT>
0

> <PUBCHEM_BOND_UDEF_STEREO_COUNT>
0

> <PUBCHEM_ISOTOPIC_ATOM_COUNT>
0

> <PUBCHEM_COMPONENT_COUNT>
1

> <PUBCHEM_CACTVS_TAUTO_COUNT>
1

> <PUBCHEM_CONFORMER_ID>
00510A2900000001

> <PUBCHEM_MMFF94_ENERGY>
56.6571

> <PUBCHEM_FEATURE_SELFOVERLAP>
15.223

> <PUBCHEM_SHAPE_FINGERPRINT>
11045515 52 18260265230944885420
11089746 13 10159699079801622094
11128504 68 16805328794662589286
11287383 113 18260267464680378024
11796584 16 18131352998725134190
12107183 9 17620477908901914608
12236239 1 18412547612823843489
12516196 113 18131348622358993040
12596602 18 15697709406598120962
12633257 1 16128367194690703478
12916748 109 11602820172747431217
13167823 11 18411416215364019763
13288520 33 18334576850153027237
13675066 3 18202275927175815889
13685833 64 18261115196983546747
14123238 8 14996002137970362420
1420 363 17458348541338854811
14251718 22 18334295379260352176
14251731 8 18343581828703993229
14341114 176 18342460356634340673
14350574 20 17023188257978598761
17834072 33 18409168826829907140
17844677 252 18411705382622285617
1813 80 17385726880634903645
19489759 90 11167941359910760599
19784866 240 18408892836505133109
200 152 18412544314399502776
20645477 70 18335983074117720682
21267235 1 18410018736090352239
212847 35 10879990281403832738
220451 1 18412270535904030978
22950370 63 18408604755615637092
2297311 6 18412268328760443325
23035841 295 18408886226345009210
23402539 116 15936403425395887077
23536379 177 18410012121840716585
23559900 14 18271236209463665904
239999 70 18413672405515418646
26918003 58 18059855056300572011
2916195 48 8718537299159536998
3004659 81 18408886214072082410
34797466 226 13190348932705577715
351380 3 18411133640875973654
4073 2 18114749329690248978
42 15 18272088301279296143
4214541 1 18411698764457211225
4325135 7 17967817171686408310
465052 167 17988928872966046630
5104073 3 18343579629327278242
542803 24 18411136935115460944
57483677 66 18410291406510739162
77779 3 18411416215363987280

> <PUBCHEM_SHAPE_MULTIPOLES>
365.45
14.44
1.62
0.9
0.49
0.26
-0.02
4.32
-0.12
0.08
0.08
-0.07
-0.19
-0.2

> <PUBCHEM_SHAPE_SELFOVERLAP>
765.473

> <PUBCHEM_SHAPE_VOLUME>
207.7

> <PUBCHEM_COORDINATE_TYPE>
2
5
10

$$$$
