54680692
  -OEChem-07202400433D

 37 39  0     1  0  0  0  0  0999 V2000
   -2.0219    1.1064    1.3757 O   0  0  0  0  0  0  0  0  0  0  0  0
   -0.0102   -0.8277   -1.7430 O   0  0  0  0  0  0  0  0  0  0  0  0
   -0.1590    2.3171    1.8639 O   0  0  0  0  0  0  0  0  0  0  0  0
    1.4622    1.2152   -0.1005 C   0  0  1  0  0  0  0  0  0  0  0  0
    1.6687    1.9062   -1.4639 C   0  0  0  0  0  0  0  0  0  0  0  0
    0.0305    0.7788    0.0569 C   0  0  0  0  0  0  0  0  0  0  0  0
    2.4093    0.0534    0.1385 C   0  0  0  0  0  0  0  0  0  0  0  0
   -0.5945   -0.1459   -0.6969 C   0  0  0  0  0  0  0  0  0  0  0  0
   -1.9932   -0.5013   -0.4457 C   0  0  0  0  0  0  0  0  0  0  0  0
    0.7130    3.0722   -1.6904 C   0  0  0  0  0  0  0  0  0  0  0  0
   -0.6980    1.4659    1.1630 C   0  0  0  0  0  0  0  0  0  0  0  0
    2.0093   -1.0207    0.9334 C   0  0  0  0  0  0  0  0  0  0  0  0
    3.6800    0.0602   -0.4368 C   0  0  0  0  0  0  0  0  0  0  0  0
   -2.6676    0.1383    0.5884 C   0  0  0  0  0  0  0  0  0  0  0  0
   -2.6953   -1.4564   -1.1935 C   0  0  0  0  0  0  0  0  0  0  0  0
    2.8799   -2.0881    1.1531 C   0  0  0  0  0  0  0  0  0  0  0  0
    4.5507   -1.0072   -0.2171 C   0  0  0  0  0  0  0  0  0  0  0  0
   -4.0001   -0.1420    0.8943 C   0  0  0  0  0  0  0  0  0  0  0  0
    4.1507   -2.0813    0.5779 C   0  0  0  0  0  0  0  0  0  0  0  0
   -4.0315   -1.7499   -0.9001 C   0  0  0  0  0  0  0  0  0  0  0  0
   -4.6829   -1.0933    0.1429 C   0  0  0  0  0  0  0  0  0  0  0  0
    1.7394    1.9540    0.6620 H   0  0  0  0  0  0  0  0  0  0  0  0
    1.6006    1.2139   -2.3095 H   0  0  0  0  0  0  0  0  0  0  0  0
    2.6742    2.3410   -1.5098 H   0  0  0  0  0  0  0  0  0  0  0  0
   -0.3209    2.7368   -1.8142 H   0  0  0  0  0  0  0  0  0  0  0  0
    0.9914    3.6095   -2.6033 H   0  0  0  0  0  0  0  0  0  0  0  0
    0.7530    3.7832   -0.8589 H   0  0  0  0  0  0  0  0  0  0  0  0
    1.0482   -1.0578    1.4366 H   0  0  0  0  0  0  0  0  0  0  0  0
    4.0447    0.8792   -1.0457 H   0  0  0  0  0  0  0  0  0  0  0  0
   -2.2206   -1.9890   -2.0140 H   0  0  0  0  0  0  0  0  0  0  0  0
    2.5725   -2.9205    1.7795 H   0  0  0  0  0  0  0  0  0  0  0  0
    5.5421   -1.0004   -0.6607 H   0  0  0  0  0  0  0  0  0  0  0  0
   -4.5034    0.3723    1.7075 H   0  0  0  0  0  0  0  0  0  0  0  0
    4.8298   -2.9109    0.7516 H   0  0  0  0  0  0  0  0  0  0  0  0
   -4.5630   -2.4928   -1.4881 H   0  0  0  0  0  0  0  0  0  0  0  0
    0.9362   -0.6268   -1.7823 H   0  0  0  0  0  0  0  0  0  0  0  0
   -5.7200   -1.3237    0.3676 H   0  0  0  0  0  0  0  0  0  0  0  0
  1 11  1  0  0  0  0
  1 14  1  0  0  0  0
  2  8  1  0  0  0  0
  2 36  1  0  0  0  0
  3 11  2  0  0  0  0
  4  5  1  0  0  0  0
  4  6  1  0  0  0  0
  4  7  1  0  0  0  0
  4 22  1  0  0  0  0
  5 10  1  0  0  0  0
  5 23  1  0  0  0  0
  5 24  1  0  0  0  0
  6  8  2  0  0  0  0
  6 11  1  0  0  0  0
  7 12  2  0  0  0  0
  7 13  1  0  0  0  0
  8  9  1  0  0  0  0
  9 14  1  0  0  0  0
  9 15  2  0  0  0  0
 10 25  1  0  0  0  0
 10 26  1  0  0  0  0
 10 27  1  0  0  0  0
 12 16  1  0  0  0  0
 12 28  1  0  0  0  0
 13 17  2  0  0  0  0
 13 29  1  0  0  0  0
 14 18  2  0  0  0  0
 15 20  1  0  0  0  0
 15 30  1  0  0  0  0
 16 19  2  0  0  0  0
 16 31  1  0  0  0  0
 17 19  1  0  0  0  0
 17 32  1  0  0  0  0
 18 21  1  0  0  0  0
 18 33  1  0  0  0  0
 19 34  1  0  0  0  0
 20 21  2  0  0  0  0
 20 35  1  0  0  0  0
 21 37  1  0  0  0  0
M  END
> <PUBCHEM_COMPOUND_CID>
54680692

> <PUBCHEM_CONFORMER_RMSD>
0.6

> <PUBCHEM_CONFORMER_DIVERSEORDER>
2
11
8
7
9
12
5
3
6
4
1
10

> <PUBCHEM_MMFF94_PARTIAL_CHARGES>
29
1 -0.23
11 0.71
12 -0.15
13 -0.15
14 0.08
15 -0.15
16 -0.15
17 -0.15
18 -0.15
19 -0.15
2 -0.53
20 -0.15
21 -0.15
28 0.15
29 0.15
3 -0.57
30 0.15
31 0.15
32 0.15
33 0.15
34 0.15
35 0.15
36 0.45
37 0.15
4 0.28
6 -0.12
7 -0.14
8 0.05
9 0.03

> <PUBCHEM_EFFECTIVE_ROTOR_COUNT>
3

> <PUBCHEM_PHARMACOPHORE_FEATURES>
6
1 10 hydrophobe
1 2 donor
1 3 acceptor
6 1 6 8 9 11 14 rings
6 7 12 13 16 17 19 rings
6 9 14 15 18 20 21 rings

> <PUBCHEM_HEAVY_ATOM_COUNT>
21

> <PUBCHEM_ATOM_DEF_STEREO_COUNT>
0

> <PUBCHEM_ATOM_UDEF_STEREO_COUNT>
1

> <PUBCHEM_BOND_DEF_STEREO_COUNT>
0

> <PUBCHEM_BOND_UDEF_STEREO_COUNT>
0

> <PUBCHEM_ISOTOPIC_ATOM_COUNT>
0

> <PUBCHEM_COMPONENT_COUNT>
1

> <PUBCHEM_CACTVS_TAUTO_COUNT>
3

> <PUBCHEM_CONFORMER_ID>
03425C7400000002

> <PUBCHEM_MMFF94_ENERGY>
69.7784

> <PUBCHEM_FEATURE_SELFOVERLAP>
30.472

> <PUBCHEM_SHAPE_FINGERPRINT>
10062212 137 18201720678389062623
11578080 2 18268686403518922288
11725454 13 15265365856804907969
12236239 1 18341338846489880212
12553582 1 18260260828924685938
12633257 1 15554435315000292858
13009979 54 18271258148441242208
13140716 1 17417252186160314939
13911987 19 17168730603884694334
14178342 30 16988298516483518227
14787075 74 18127688438713939104
15375462 189 18413107281464357954
15375462 478 18273495645723629430
16945 1 18114178700097613268
17349148 13 17775559862809574487
1813 80 18336274452877312886
18186145 218 16081365302166345549
18915476 22 17388277872281848756
19078846 21 17988933309625026281
200 152 17676487194904594226
20291156 8 18412540998690193874
20361792 2 18187363190828120452
20600515 1 17131843070445302129
20645477 70 17749670808649331107
20671657 53 18186519899415946430
22112679 90 18129961038584727177
2255824 54 18189620621264907196
232386 152 17989489662234367629
23366157 5 17912355726249021217
23419403 2 17984102016424815584
23526113 38 16008750203829491760
23557571 272 16916804941323550761
23559900 14 18115581690383916859
23598291 2 18337405897265395380
25222932 49 15973817925105199319
266924 1 18268448947809409468
3411729 13 16772099474259335616
4072396 5 17704356559310222311
46194498 28 16805607039839893343
465052 167 18341899627501206583
5104073 3 17344916441714776851
77492 1 18340780298672390828
83771 10 18408318869913345642
90316 7 18059859424419722505

> <PUBCHEM_SHAPE_MULTIPOLES>
414.56
8.12
2.6
1.55
1.55
1.3
-0.07
-6.21
0.02
-1.57
0.37
0.48
0.57
-1.56

> <PUBCHEM_SHAPE_SELFOVERLAP>
907.954

> <PUBCHEM_SHAPE_VOLUME>
222.9

> <PUBCHEM_COORDINATE_TYPE>
2
5
10

$$$$
