54745
  -OEChem-07202400483D

 44 44  0     1  0  0  0  0  0999 V2000
    3.8481    1.6748    2.1276 Cl  0  0  0  0  0  0  0  0  0  0  0  0
    6.1247   -2.3686   -0.7362 Cl  0  0  0  0  0  0  0  0  0  0  0  0
    3.4850   -2.4024   -1.9784 F   0  0  0  0  0  0  0  0  0  0  0  0
   -1.8255    1.4409   -0.7592 O   0  0  0  0  0  0  0  0  0  0  0  0
    1.5180    1.0033    0.4105 O   0  0  0  0  0  0  0  0  0  0  0  0
   -0.6355    2.5338    0.8894 O   0  0  0  0  0  0  0  0  0  0  0  0
    2.5111   -0.7036   -0.7839 N   0  0  0  0  0  0  0  0  0  0  0  0
    6.0969   -0.1840    1.3614 N   0  0  0  0  0  0  0  0  0  0  0  0
   -4.3642    0.2302    0.0640 C   0  0  0  0  0  0  0  0  0  0  0  0
   -4.2349    1.4854   -0.8076 C   0  0  0  0  0  0  0  0  0  0  0  0
   -5.6633   -0.5208   -0.2381 C   0  0  0  0  0  0  0  0  0  0  0  0
   -2.9555    2.2703   -0.5027 C   0  0  2  0  0  0  0  0  0  0  0  0
   -5.8599   -1.7692    0.6266 C   0  0  0  0  0  0  0  0  0  0  0  0
   -7.1916   -2.4783    0.3771 C   0  0  0  0  0  0  0  0  0  0  0  0
   -2.8553    3.5189   -1.3686 C   0  0  0  0  0  0  0  0  0  0  0  0
   -7.3698   -3.6669    1.3093 C   0  0  0  0  0  0  0  0  0  0  0  0
   -0.7237    1.6822    0.0154 C   0  0  0  0  0  0  0  0  0  0  0  0
    0.3757    0.7305   -0.3766 C   0  0  0  0  0  0  0  0  0  0  0  0
    2.6343    0.2360    0.1804 C   0  0  0  0  0  0  0  0  0  0  0  0
    3.7903    0.4471    0.9142 C   0  0  0  0  0  0  0  0  0  0  0  0
    4.8909   -0.3577    0.6409 C   0  0  0  0  0  0  0  0  0  0  0  0
    4.8029   -1.3351   -0.3441 C   0  0  0  0  0  0  0  0  0  0  0  0
    3.6014   -1.4667   -1.0215 C   0  0  0  0  0  0  0  0  0  0  0  0
   -3.5130   -0.4390   -0.1078 H   0  0  0  0  0  0  0  0  0  0  0  0
   -4.3440    0.5156    1.1226 H   0  0  0  0  0  0  0  0  0  0  0  0
   -4.2321    1.1771   -1.8609 H   0  0  0  0  0  0  0  0  0  0  0  0
   -5.1084    2.1310   -0.6562 H   0  0  0  0  0  0  0  0  0  0  0  0
   -6.5129    0.1562   -0.0839 H   0  0  0  0  0  0  0  0  0  0  0  0
   -5.6787   -0.8117   -1.2958 H   0  0  0  0  0  0  0  0  0  0  0  0
   -2.9911    2.5676    0.5535 H   0  0  0  0  0  0  0  0  0  0  0  0
   -5.7995   -1.4809    1.6836 H   0  0  0  0  0  0  0  0  0  0  0  0
   -5.0348   -2.4683    0.4426 H   0  0  0  0  0  0  0  0  0  0  0  0
   -8.0200   -1.7766    0.5281 H   0  0  0  0  0  0  0  0  0  0  0  0
   -7.2403   -2.8199   -0.6631 H   0  0  0  0  0  0  0  0  0  0  0  0
   -2.7964    3.2548   -2.4304 H   0  0  0  0  0  0  0  0  0  0  0  0
   -1.9465    4.0835   -1.1351 H   0  0  0  0  0  0  0  0  0  0  0  0
   -3.7172    4.1764   -1.2189 H   0  0  0  0  0  0  0  0  0  0  0  0
   -6.5711   -4.4015    1.1651 H   0  0  0  0  0  0  0  0  0  0  0  0
   -7.3604   -3.3494    2.3569 H   0  0  0  0  0  0  0  0  0  0  0  0
   -8.3260   -4.1619    1.1131 H   0  0  0  0  0  0  0  0  0  0  0  0
    0.5977    0.8920   -1.4379 H   0  0  0  0  0  0  0  0  0  0  0  0
    0.0209   -0.2899   -0.1917 H   0  0  0  0  0  0  0  0  0  0  0  0
    6.8944   -0.7717    1.1579 H   0  0  0  0  0  0  0  0  0  0  0  0
    6.1582    0.5282    2.0768 H   0  0  0  0  0  0  0  0  0  0  0  0
  1 20  1  0  0  0  0
  2 22  1  0  0  0  0
  3 23  1  0  0  0  0
  4 12  1  0  0  0  0
  4 17  1  0  0  0  0
  5 18  1  0  0  0  0
  5 19  1  0  0  0  0
  6 17  2  0  0  0  0
  7 19  2  0  0  0  0
  7 23  1  0  0  0  0
  8 21  1  0  0  0  0
  8 43  1  0  0  0  0
  8 44  1  0  0  0  0
  9 10  1  0  0  0  0
  9 11  1  0  0  0  0
  9 24  1  0  0  0  0
  9 25  1  0  0  0  0
 10 12  1  0  0  0  0
 10 26  1  0  0  0  0
 10 27  1  0  0  0  0
 11 13  1  0  0  0  0
 11 28  1  0  0  0  0
 11 29  1  0  0  0  0
 12 15  1  0  0  0  0
 12 30  1  0  0  0  0
 13 14  1  0  0  0  0
 13 31  1  0  0  0  0
 13 32  1  0  0  0  0
 14 16  1  0  0  0  0
 14 33  1  0  0  0  0
 14 34  1  0  0  0  0
 15 35  1  0  0  0  0
 15 36  1  0  0  0  0
 15 37  1  0  0  0  0
 16 38  1  0  0  0  0
 16 39  1  0  0  0  0
 16 40  1  0  0  0  0
 17 18  1  0  0  0  0
 18 41  1  0  0  0  0
 18 42  1  0  0  0  0
 19 20  1  0  0  0  0
 20 21  2  0  0  0  0
 21 22  1  0  0  0  0
 22 23  2  0  0  0  0
M  END
> <PUBCHEM_COMPOUND_CID>
54745

> <PUBCHEM_CONFORMER_RMSD>
1

> <PUBCHEM_CONFORMER_DIVERSEORDER>
1
98
103
73
131
262
343
135
84
225
280
329
184
152
214
188
243
45
224
231
15
106
295
97
153
244
34
114
325
102
22
139
230
93
47
21
5
251
173
41
78
228
351
121
164
318
59
143
138
140
279
210
284
308
176
204
65
320
49
105
333
128
232
252
48
171
255
296
211
13
163
29
170
137
293
180
314
9
283
136
14
349
266
119
141
148
181
208
31
167
247
324
95
32
20
61
113
201
307
53
12
36
259
198
156
237
151
290
63
86
335
319
6
194
124
323
327
42
110
145
27
30
134
91
264
23
292
16
199
310
175
4
107
195
202
331
268
85
17
159
330
70
249
254
52
288
33
19
133
2
104
57
158
258
334
285
196
190
111
352
7
235
218
241
289
146
55
222
24
67
179
261
56
337
270
71
108
339
177
10
25
35
157
115
149
39
332
300
205
304
60
217
282
74
83
263
207
260
192
89
277
72
340
236
80
209
197
240
267
62
271
166
76
64
312
311
18
191
182
350
3
178
229
43
273
286
346
341
302
274
248
187
126
101
193
216
58
88
100
227
92
165
287
168
46
305
246
129
276
69
338
281
234
82
326
169
306
253
245
154
220
44
112
125
11
344
37
51
328
347
122
66
345
130
94
87
206
50
299
120
132
221
142
127
342
155
203
77
297
161
309
315
185
301
256
336
354
298
79
213
183
109
90
313
8
269
242
353
54
348
28
316
250
186
147
257
150
26
75
291
117
200
278
123
96
265
99
219
189
68
239
40
294
160
226
272
275
172
38
212
174
116
238
321
233
223
81
322
215
355
144
317
118
162
303

> <PUBCHEM_MMFF94_PARTIAL_CHARGES>
18
1 -0.18
12 0.28
17 0.66
18 0.34
19 0.39
2 -0.18
20 0.18
21 0.1
22 0.18
23 0.5
3 -0.19
4 -0.43
43 0.4
44 0.4
5 -0.36
6 -0.57
7 -0.62
8 -0.9

> <PUBCHEM_EFFECTIVE_ROTOR_COUNT>
10

> <PUBCHEM_PHARMACOPHORE_FEATURES>
6
1 16 hydrophobe
1 6 acceptor
1 8 cation
1 8 donor
5 9 10 11 13 14 hydrophobe
6 7 19 20 21 22 23 rings

> <PUBCHEM_HEAVY_ATOM_COUNT>
23

> <PUBCHEM_ATOM_DEF_STEREO_COUNT>
0

> <PUBCHEM_ATOM_UDEF_STEREO_COUNT>
1

> <PUBCHEM_BOND_DEF_STEREO_COUNT>
0

> <PUBCHEM_BOND_UDEF_STEREO_COUNT>
0

> <PUBCHEM_ISOTOPIC_ATOM_COUNT>
0

> <PUBCHEM_COMPONENT_COUNT>
1

> <PUBCHEM_CACTVS_TAUTO_COUNT>
2

> <PUBCHEM_CONFORMER_ID>
0000D5D900000001

> <PUBCHEM_MMFF94_ENERGY>
44.8517

> <PUBCHEM_FEATURE_SELFOVERLAP>
30.446

> <PUBCHEM_SHAPE_FINGERPRINT>
10669705 251 18268436900848565995
10981352 41 18271807990687784831
12342043 65 18343586217759656105
12616971 3 16056587751436108056
12730499 353 18060131060227666488
13103583 49 15769771390682884685
13782708 43 18341045237893188634
14123256 34 18261678160001302459
14216079 64 18337674217965345707
14251751 18 18408887317393192717
14950920 106 16343697794596604115
15510800 12 18409727392138950455
16992779 147 16557049293617653984
17844677 252 17560511799065250448
20281389 69 10375868584992587325
20621476 21 18411707551986692287
21054139 6 17676485025566210962
21095086 4 18410022056744377931
21267235 1 17417245408991994118
21315759 148 18201718448984479849
21585480 29 17698994412737324327
21623969 137 17917990551325981158
22149856 69 18201451276190842721
2303208 19 18272651208209380052
23424784 1240 18201445731214503359
23559900 14 18197205963091359668
270888 7 10303547087216800555
2748736 6 10663832832529322931
3089732 80 18412266134006041135
312425 54 18201449043377288211
4073 2 18341329972713270577
484989 97 18270970042658103654
5104073 3 17630599021374303520
56633871 153 18199188567946728639
60123966 16 12179842775941249570
636775 8 18270692965727800566
8863177 126 18342738511569812958

> <PUBCHEM_SHAPE_MULTIPOLES>
442.23
19.69
3.88
1.46
18.04
0.33
0.24
21.36
3.96
6.5
-0.41
-1.54
-0.02
5.13

> <PUBCHEM_SHAPE_SELFOVERLAP>
870.031

> <PUBCHEM_SHAPE_VOLUME>
266.1

> <PUBCHEM_COORDINATE_TYPE>
2
5
10

$$$$
