54744
  -OEChem-07202400483D

 41 42  0     1  0  0  0  0  0999 V2000
   -2.8765    2.4975    1.1982 O   0  0  0  0  0  0  0  0  0  0  0  0
    0.6405   -2.6248   -0.6652 O   0  0  0  0  0  0  0  0  0  0  0  0
    0.8267   -2.4410    1.6218 O   0  0  0  0  0  0  0  0  0  0  0  0
   -1.1199   -0.3330   -0.0352 N   0  0  0  0  0  0  0  0  0  0  0  0
   -0.7281    1.7388    0.7404 N   0  0  0  0  0  0  0  0  0  0  0  0
   -2.4374    0.2686    0.2974 C   0  0  2  0  0  0  0  0  0  0  0  0
   -3.2827    0.3522   -0.9667 C   0  0  0  0  0  0  0  0  0  0  0  0
   -2.0877    1.6516    0.8087 C   0  0  0  0  0  0  0  0  0  0  0  0
   -3.1067   -0.5619    1.3846 C   0  0  0  0  0  0  0  0  0  0  0  0
   -2.5433    1.1204   -2.0618 C   0  0  0  0  0  0  0  0  0  0  0  0
   -3.6614   -1.0449   -1.4577 C   0  0  0  0  0  0  0  0  0  0  0  0
   -0.2350    0.5740    0.2499 C   0  0  0  0  0  0  0  0  0  0  0  0
    1.1944    0.4332    0.0884 C   0  0  0  0  0  0  0  0  0  0  0  0
    1.8290   -0.8109    0.1994 C   0  0  0  0  0  0  0  0  0  0  0  0
    1.9648    1.5703   -0.1864 C   0  0  0  0  0  0  0  0  0  0  0  0
    3.3465    1.4653   -0.3476 C   0  0  0  0  0  0  0  0  0  0  0  0
    3.2105   -0.9159    0.0384 C   0  0  0  0  0  0  0  0  0  0  0  0
    3.9692    0.2222   -0.2350 C   0  0  0  0  0  0  0  0  0  0  0  0
    1.0643   -2.0182    0.4843 C   0  0  0  0  0  0  0  0  0  0  0  0
    4.1582    2.6817   -0.6398 C   0  0  0  0  0  0  0  0  0  0  0  0
   -0.1255   -3.8251   -0.5160 C   0  0  0  0  0  0  0  0  0  0  0  0
   -4.2111    0.8976   -0.7508 H   0  0  0  0  0  0  0  0  0  0  0  0
   -4.1355   -0.2308    1.5643 H   0  0  0  0  0  0  0  0  0  0  0  0
   -3.1161   -1.6305    1.1461 H   0  0  0  0  0  0  0  0  0  0  0  0
   -2.5684   -0.4627    2.3354 H   0  0  0  0  0  0  0  0  0  0  0  0
   -2.2887    2.1397   -1.7563 H   0  0  0  0  0  0  0  0  0  0  0  0
   -1.6278    0.6140   -2.3850 H   0  0  0  0  0  0  0  0  0  0  0  0
   -3.1827    1.2118   -2.9479 H   0  0  0  0  0  0  0  0  0  0  0  0
   -2.7838   -1.6801   -1.6173 H   0  0  0  0  0  0  0  0  0  0  0  0
   -4.1941   -0.9792   -2.4135 H   0  0  0  0  0  0  0  0  0  0  0  0
   -4.3359   -1.5531   -0.7618 H   0  0  0  0  0  0  0  0  0  0  0  0
   -0.1976    2.5513    1.0323 H   0  0  0  0  0  0  0  0  0  0  0  0
    1.5029    2.5482   -0.2992 H   0  0  0  0  0  0  0  0  0  0  0  0
    3.7074   -1.8790    0.1241 H   0  0  0  0  0  0  0  0  0  0  0  0
    5.0450    0.1267   -0.3564 H   0  0  0  0  0  0  0  0  0  0  0  0
    5.1065    2.4236   -1.1234 H   0  0  0  0  0  0  0  0  0  0  0  0
    3.6241    3.3535   -1.3204 H   0  0  0  0  0  0  0  0  0  0  0  0
    4.3772    3.2192    0.2882 H   0  0  0  0  0  0  0  0  0  0  0  0
   -1.0449   -3.6186    0.0401 H   0  0  0  0  0  0  0  0  0  0  0  0
    0.4689   -4.5913   -0.0098 H   0  0  0  0  0  0  0  0  0  0  0  0
   -0.3910   -4.1856   -1.5132 H   0  0  0  0  0  0  0  0  0  0  0  0
  1  8  2  0  0  0  0
  2 19  1  0  0  0  0
  2 21  1  0  0  0  0
  3 19  2  0  0  0  0
  4  6  1  0  0  0  0
  4 12  2  0  0  0  0
  5  8  1  0  0  0  0
  5 12  1  0  0  0  0
  5 32  1  0  0  0  0
  6  7  1  0  0  0  0
  6  8  1  0  0  0  0
  6  9  1  0  0  0  0
  7 10  1  0  0  0  0
  7 11  1  0  0  0  0
  7 22  1  0  0  0  0
  9 23  1  0  0  0  0
  9 24  1  0  0  0  0
  9 25  1  0  0  0  0
 10 26  1  0  0  0  0
 10 27  1  0  0  0  0
 10 28  1  0  0  0  0
 11 29  1  0  0  0  0
 11 30  1  0  0  0  0
 11 31  1  0  0  0  0
 12 13  1  0  0  0  0
 13 14  2  0  0  0  0
 13 15  1  0  0  0  0
 14 17  1  0  0  0  0
 14 19  1  0  0  0  0
 15 16  2  0  0  0  0
 15 33  1  0  0  0  0
 16 18  1  0  0  0  0
 16 20  1  0  0  0  0
 17 18  2  0  0  0  0
 17 34  1  0  0  0  0
 18 35  1  0  0  0  0
 20 36  1  0  0  0  0
 20 37  1  0  0  0  0
 20 38  1  0  0  0  0
 21 39  1  0  0  0  0
 21 40  1  0  0  0  0
 21 41  1  0  0  0  0
M  END
> <PUBCHEM_COMPOUND_CID>
54744

> <PUBCHEM_CONFORMER_RMSD>
0.6

> <PUBCHEM_CONFORMER_DIVERSEORDER>
1
7
31
5
27
32
17
26
24
29
13
21
6
30
2
33
23
20
9
25
19
8
12
11
4
14
18
22
3
10
15
16
28

> <PUBCHEM_MMFF94_PARTIAL_CHARGES>
21
1 -0.57
12 0.42
13 0.09
14 0.09
15 -0.15
16 -0.14
17 -0.15
18 -0.15
19 0.63
2 -0.43
20 0.14
21 0.28
3 -0.57
32 0.37
33 0.15
34 0.15
35 0.15
4 -0.7
5 -0.49
6 0.31
8 0.57

> <PUBCHEM_EFFECTIVE_ROTOR_COUNT>
4.4

> <PUBCHEM_PHARMACOPHORE_FEATURES>
6
1 1 acceptor
1 3 acceptor
1 5 donor
3 7 10 11 hydrophobe
5 4 5 6 8 12 rings
6 13 14 15 16 17 18 rings

> <PUBCHEM_HEAVY_ATOM_COUNT>
21

> <PUBCHEM_ATOM_DEF_STEREO_COUNT>
0

> <PUBCHEM_ATOM_UDEF_STEREO_COUNT>
1

> <PUBCHEM_BOND_DEF_STEREO_COUNT>
0

> <PUBCHEM_BOND_UDEF_STEREO_COUNT>
0

> <PUBCHEM_ISOTOPIC_ATOM_COUNT>
0

> <PUBCHEM_COMPONENT_COUNT>
1

> <PUBCHEM_CACTVS_TAUTO_COUNT>
3

> <PUBCHEM_CONFORMER_ID>
0000D5D800000001

> <PUBCHEM_MMFF94_ENERGY>
65.8912

> <PUBCHEM_FEATURE_SELFOVERLAP>
30.446

> <PUBCHEM_SHAPE_FINGERPRINT>
11578080 2 16735809818090551767
121448 382 18201144568048970442
12173636 292 18341905107425691541
12553582 1 17400643723019481786
12788726 201 17560230316157656937
13140716 1 18337116657425611656
13224815 77 18409731763655814120
13583140 156 17313375781865495384
14178342 30 18054775196384158171
14787075 74 18120375612214731731
15279307 12 18058451993648553903
15309172 13 18408327700239434200
16752209 62 17130967803713642125
16945 1 18200875192232639544
17492 54 18047731970242952887
17980427 23 17980171133737957042
18186145 218 18334303050204039052
200 152 18341885308069224525
20645477 70 18336821983929711767
21160774 45 18194122047633778175
21524375 3 18334296491783547418
2255824 54 18266182738516894538
2334 1 18410299129088992184
23402539 116 18131351887040669860
23419403 2 12624033777965977248
23566358 27 18127142887382883335
238 59 17827883335551180831
2748010 2 18334588966007836410
34934 24 18127130766753195393
352729 6 18340772649620739578
394222 165 18042100142313894435
474 4 18335425638411684128
603831 33 18272642463598085981
633830 44 18341626884134752700
7364860 26 18052548672774704458
7832392 63 17909838626067740592
81228 2 17542783565625561026
8272917 22 18268149751970942421
90525 40 18059575733033879149
9925002 15 17248659798311024887

> <PUBCHEM_SHAPE_MULTIPOLES>
404.6
6.86
3.34
1.35
2.21
2.45
0.19
-3.54
1.59
0.8
-0.03
-1.44
-0.11
-0.87

> <PUBCHEM_SHAPE_SELFOVERLAP>
863.847

> <PUBCHEM_SHAPE_VOLUME>
228.6

> <PUBCHEM_COORDINATE_TYPE>
2
5
10

$$$$
