54740
  -OEChem-07202400483D

 40 41  0     1  0  0  0  0  0999 V2000
   -3.3744    2.5265    0.1555 O   0  0  0  0  0  0  0  0  0  0  0  0
    0.4778   -2.5488   -0.8351 O   0  0  0  0  0  0  0  0  0  0  0  0
    0.4167   -2.5764    1.4276 O   0  0  0  0  0  0  0  0  0  0  0  0
   -1.4226   -0.4368    0.3207 N   0  0  0  0  0  0  0  0  0  0  0  0
   -1.1704    1.7896    0.1586 N   0  0  0  0  0  0  0  0  0  0  0  0
    1.5002    1.6445    0.1096 N   0  0  0  0  0  0  0  0  0  0  0  0
   -2.7834    0.1601    0.3077 C   0  0  2  0  0  0  0  0  0  0  0  0
   -3.5436   -0.3535   -0.9080 C   0  0  0  0  0  0  0  0  0  0  0  0
   -2.5267    1.6496    0.1975 C   0  0  0  0  0  0  0  0  0  0  0  0
   -3.4903   -0.1765    1.6142 C   0  0  0  0  0  0  0  0  0  0  0  0
   -2.7638   -0.0719   -2.1920 C   0  0  0  0  0  0  0  0  0  0  0  0
   -3.8300   -1.8490   -0.7747 C   0  0  0  0  0  0  0  0  0  0  0  0
   -0.5974    0.5621    0.2319 C   0  0  0  0  0  0  0  0  0  0  0  0
    0.8443    0.4614    0.2087 C   0  0  0  0  0  0  0  0  0  0  0  0
    1.4929   -0.7669    0.2825 C   0  0  0  0  0  0  0  0  0  0  0  0
    3.5826    0.4168    0.1524 C   0  0  0  0  0  0  0  0  0  0  0  0
    2.8830   -0.7806    0.2534 C   0  0  0  0  0  0  0  0  0  0  0  0
    2.8509    1.5914    0.0841 C   0  0  0  0  0  0  0  0  0  0  0  0
    5.0695    0.4360    0.1190 C   0  0  0  0  0  0  0  0  0  0  0  0
    0.7612   -2.0203    0.3882 C   0  0  0  0  0  0  0  0  0  0  0  0
    5.6236    0.3426   -1.3019 C   0  0  0  0  0  0  0  0  0  0  0  0
   -4.5063    0.1693   -0.9854 H   0  0  0  0  0  0  0  0  0  0  0  0
   -4.5416    0.1308    1.5903 H   0  0  0  0  0  0  0  0  0  0  0  0
   -3.4398   -1.2441    1.8524 H   0  0  0  0  0  0  0  0  0  0  0  0
   -3.0228    0.3501    2.4554 H   0  0  0  0  0  0  0  0  0  0  0  0
   -1.8084   -0.6055   -2.2287 H   0  0  0  0  0  0  0  0  0  0  0  0
   -3.3448   -0.4054   -3.0600 H   0  0  0  0  0  0  0  0  0  0  0  0
   -2.5729    0.9956   -2.3377 H   0  0  0  0  0  0  0  0  0  0  0  0
   -2.9180   -2.4326   -0.6111 H   0  0  0  0  0  0  0  0  0  0  0  0
   -4.2990   -2.2279   -1.6901 H   0  0  0  0  0  0  0  0  0  0  0  0
   -4.5285   -2.0598    0.0408 H   0  0  0  0  0  0  0  0  0  0  0  0
   -0.6796    2.6736    0.0860 H   0  0  0  0  0  0  0  0  0  0  0  0
    3.4207   -1.7244    0.3078 H   0  0  0  0  0  0  0  0  0  0  0  0
    3.3393    2.5576    0.0026 H   0  0  0  0  0  0  0  0  0  0  0  0
    5.4421    1.3521    0.5940 H   0  0  0  0  0  0  0  0  0  0  0  0
    5.4677   -0.3919    0.7188 H   0  0  0  0  0  0  0  0  0  0  0  0
    5.3057   -0.5849   -1.7901 H   0  0  0  0  0  0  0  0  0  0  0  0
    6.7178    0.3599   -1.2825 H   0  0  0  0  0  0  0  0  0  0  0  0
    5.2801    1.1818   -1.9162 H   0  0  0  0  0  0  0  0  0  0  0  0
   -0.0193   -3.3914   -0.7619 H   0  0  0  0  0  0  0  0  0  0  0  0
  1  9  2  0  0  0  0
  2 20  1  0  0  0  0
  2 40  1  0  0  0  0
  3 20  2  0  0  0  0
  4  7  1  0  0  0  0
  4 13  2  0  0  0  0
  5  9  1  0  0  0  0
  5 13  1  0  0  0  0
  5 32  1  0  0  0  0
  6 14  1  0  0  0  0
  6 18  2  0  0  0  0
  7  8  1  0  0  0  0
  7  9  1  0  0  0  0
  7 10  1  0  0  0  0
  8 11  1  0  0  0  0
  8 12  1  0  0  0  0
  8 22  1  0  0  0  0
 10 23  1  0  0  0  0
 10 24  1  0  0  0  0
 10 25  1  0  0  0  0
 11 26  1  0  0  0  0
 11 27  1  0  0  0  0
 11 28  1  0  0  0  0
 12 29  1  0  0  0  0
 12 30  1  0  0  0  0
 12 31  1  0  0  0  0
 13 14  1  0  0  0  0
 14 15  2  0  0  0  0
 15 17  1  0  0  0  0
 15 20  1  0  0  0  0
 16 17  2  0  0  0  0
 16 18  1  0  0  0  0
 16 19  1  0  0  0  0
 17 33  1  0  0  0  0
 18 34  1  0  0  0  0
 19 21  1  0  0  0  0
 19 35  1  0  0  0  0
 19 36  1  0  0  0  0
 21 37  1  0  0  0  0
 21 38  1  0  0  0  0
 21 39  1  0  0  0  0
M  END
> <PUBCHEM_COMPOUND_CID>
54740

> <PUBCHEM_CONFORMER_RMSD>
0.6

> <PUBCHEM_CONFORMER_DIVERSEORDER>
1
7
11
9
23
12
5
24
22
10
17
20
13
4
15
6
2
21
18
8
16
19
14
3

> <PUBCHEM_MMFF94_PARTIAL_CHARGES>
20
1 -0.57
13 0.42
14 0.4
15 0.09
16 -0.14
17 -0.15
18 0.16
19 0.14
2 -0.65
20 0.63
3 -0.57
32 0.37
33 0.15
34 0.15
4 -0.7
40 0.5
5 -0.49
6 -0.62
7 0.31
9 0.57

> <PUBCHEM_EFFECTIVE_ROTOR_COUNT>
4.4

> <PUBCHEM_PHARMACOPHORE_FEATURES>
10
1 1 acceptor
1 2 acceptor
1 21 hydrophobe
1 3 acceptor
1 5 donor
1 6 acceptor
3 2 3 20 anion
3 8 11 12 hydrophobe
5 4 5 7 9 13 rings
6 6 14 15 16 17 18 rings

> <PUBCHEM_HEAVY_ATOM_COUNT>
21

> <PUBCHEM_ATOM_DEF_STEREO_COUNT>
0

> <PUBCHEM_ATOM_UDEF_STEREO_COUNT>
1

> <PUBCHEM_BOND_DEF_STEREO_COUNT>
0

> <PUBCHEM_BOND_UDEF_STEREO_COUNT>
0

> <PUBCHEM_ISOTOPIC_ATOM_COUNT>
0

> <PUBCHEM_COMPONENT_COUNT>
1

> <PUBCHEM_CACTVS_TAUTO_COUNT>
3

> <PUBCHEM_CONFORMER_ID>
0000D5D400000001

> <PUBCHEM_MMFF94_ENERGY>
60.3196

> <PUBCHEM_FEATURE_SELFOVERLAP>
50.806

> <PUBCHEM_SHAPE_FINGERPRINT>
10062212 137 18339069389675238274
10616163 171 18341891892238316951
11578080 2 17170107036927081127
11796584 16 15267072410936772828
121448 382 18339348781614286067
12236239 1 17775006821008029513
12553582 1 18128516319614565519
12788726 201 17987502750951276529
13140716 1 18120663684113276091
13224815 77 18341604927918712793
13583140 156 16733258053750912872
13862211 1 18410289212499921234
14251751 93 18131630080050229188
15196674 1 18410293567248359392
15209289 33 18343024418994659344
16945 1 18410006637188604667
17349148 13 18410008853971835120
18186145 218 17989488528542453872
200 152 18340195371650696005
20602899 9 17060068081345917166
21267235 1 18341619264910060199
21501502 16 18265604390936853705
21524375 3 18408038533266596250
21634736 98 18126553746560258758
22393880 68 18341321232539128548
23402539 116 18343300358296835924
23402655 69 18339921511213586372
23493267 7 14620524384763096155
23559900 14 18198894993255789288
2748010 2 17619067673760240632
2871803 45 18340474664747077591
34934 24 18268147561458993825
3759504 43 17603875550296589538
4409770 3 14234568780007072869
4990 188 17988649575738195532
5104073 3 18336265635272602880
59755656 215 18343304751515441799
6138700 20 18194690268314217438
633830 44 18262805051670914078
69090 78 18201437030079629390
7364860 26 18125159325387864170
81228 2 17616243019756384186
90525 40 17988918947090793375

> <PUBCHEM_SHAPE_MULTIPOLES>
399.62
9.06
2.32
1.27
7.9
0.52
0.37
-1.43
2.29
-1.02
-0.27
-0.89
0.34
-0.53

> <PUBCHEM_SHAPE_SELFOVERLAP>
854.444

> <PUBCHEM_SHAPE_VOLUME>
223.2

> <PUBCHEM_COORDINATE_TYPE>
2
5
10

$$$$
