54778
  -OEChem-07202400463D

 30 31  0     0  0  0  0  0  0999 V2000
   -1.4069   -2.5664    0.0702 Cl  0  0  0  0  0  0  0  0  0  0  0  0
    1.0210    1.5035   -0.2329 O   0  0  0  0  0  0  0  0  0  0  0  0
    2.0997   -1.8016   -0.6072 O   0  0  0  0  0  0  0  0  0  0  0  0
    0.8564    0.1696   -0.6556 N   0  0  0  0  0  0  0  0  0  0  0  0
    2.8836    0.2451    0.4512 C   0  0  0  0  0  0  0  0  0  0  0  0
    2.4321    1.6269   -0.0205 C   0  0  0  0  0  0  0  0  0  0  0  0
    1.9342   -0.6205   -0.3416 C   0  0  0  0  0  0  0  0  0  0  0  0
    4.3437   -0.0311    0.1186 C   0  0  0  0  0  0  0  0  0  0  0  0
    2.6116    0.0443    1.9453 C   0  0  0  0  0  0  0  0  0  0  0  0
   -0.3281   -0.1012   -1.4339 C   0  0  0  0  0  0  0  0  0  0  0  0
   -1.5840    0.0643   -0.6201 C   0  0  0  0  0  0  0  0  0  0  0  0
   -2.1314   -0.9998    0.0852 C   0  0  0  0  0  0  0  0  0  0  0  0
   -2.1830    1.3180   -0.5944 C   0  0  0  0  0  0  0  0  0  0  0  0
   -3.2964   -0.8079    0.8279 C   0  0  0  0  0  0  0  0  0  0  0  0
   -3.3480    1.5098    0.1483 C   0  0  0  0  0  0  0  0  0  0  0  0
   -3.9048    0.4470    0.8595 C   0  0  0  0  0  0  0  0  0  0  0  0
    2.6204    2.4119    0.7184 H   0  0  0  0  0  0  0  0  0  0  0  0
    2.8947    1.9207   -0.9705 H   0  0  0  0  0  0  0  0  0  0  0  0
    4.5255    0.0355   -0.9601 H   0  0  0  0  0  0  0  0  0  0  0  0
    5.0046    0.6852    0.6183 H   0  0  0  0  0  0  0  0  0  0  0  0
    4.6373   -1.0395    0.4314 H   0  0  0  0  0  0  0  0  0  0  0  0
    3.2165    0.7286    2.5501 H   0  0  0  0  0  0  0  0  0  0  0  0
    1.5585    0.2159    2.1962 H   0  0  0  0  0  0  0  0  0  0  0  0
    2.8511   -0.9805    2.2521 H   0  0  0  0  0  0  0  0  0  0  0  0
   -0.2520   -1.0996   -1.8762 H   0  0  0  0  0  0  0  0  0  0  0  0
   -0.3312    0.5964   -2.2810 H   0  0  0  0  0  0  0  0  0  0  0  0
   -1.7608    2.1553   -1.1432 H   0  0  0  0  0  0  0  0  0  0  0  0
   -3.7428   -1.6258    1.3879 H   0  0  0  0  0  0  0  0  0  0  0  0
   -3.8215    2.4870    0.1730 H   0  0  0  0  0  0  0  0  0  0  0  0
   -4.8118    0.5966    1.4378 H   0  0  0  0  0  0  0  0  0  0  0  0
  1 12  1  0  0  0  0
  2  4  1  0  0  0  0
  2  6  1  0  0  0  0
  3  7  2  0  0  0  0
  4  7  1  0  0  0  0
  4 10  1  0  0  0  0
  5  6  1  0  0  0  0
  5  7  1  0  0  0  0
  5  8  1  0  0  0  0
  5  9  1  0  0  0  0
  6 17  1  0  0  0  0
  6 18  1  0  0  0  0
  8 19  1  0  0  0  0
  8 20  1  0  0  0  0
  8 21  1  0  0  0  0
  9 22  1  0  0  0  0
  9 23  1  0  0  0  0
  9 24  1  0  0  0  0
 10 11  1  0  0  0  0
 10 25  1  0  0  0  0
 10 26  1  0  0  0  0
 11 12  1  0  0  0  0
 11 13  2  0  0  0  0
 12 14  2  0  0  0  0
 13 15  1  0  0  0  0
 13 27  1  0  0  0  0
 14 16  1  0  0  0  0
 14 28  1  0  0  0  0
 15 16  2  0  0  0  0
 15 29  1  0  0  0  0
 16 30  1  0  0  0  0
M  END
> <PUBCHEM_COMPOUND_CID>
54778

> <PUBCHEM_CONFORMER_RMSD>
0.6

> <PUBCHEM_CONFORMER_DIVERSEORDER>
1
13
16
18
15
11
3
17
14
4
8
19
20
7
9
10
6
22
21
12
2
5

> <PUBCHEM_MMFF94_PARTIAL_CHARGES>
18
1 -0.18
10 0.44
11 -0.14
12 0.18
13 -0.15
14 -0.15
15 -0.15
16 -0.15
2 -0.32
27 0.15
28 0.15
29 0.15
3 -0.57
30 0.15
4 -0.32
5 0.06
6 0.28
7 0.57

> <PUBCHEM_EFFECTIVE_ROTOR_COUNT>
2.8

> <PUBCHEM_PHARMACOPHORE_FEATURES>
4
1 3 acceptor
3 5 8 9 hydrophobe
5 2 4 5 6 7 rings
6 11 12 13 14 15 16 rings

> <PUBCHEM_HEAVY_ATOM_COUNT>
16

> <PUBCHEM_ATOM_DEF_STEREO_COUNT>
0

> <PUBCHEM_ATOM_UDEF_STEREO_COUNT>
0

> <PUBCHEM_BOND_DEF_STEREO_COUNT>
0

> <PUBCHEM_BOND_UDEF_STEREO_COUNT>
0

> <PUBCHEM_ISOTOPIC_ATOM_COUNT>
0

> <PUBCHEM_COMPONENT_COUNT>
1

> <PUBCHEM_CACTVS_TAUTO_COUNT>
1

> <PUBCHEM_CONFORMER_ID>
0000D5FA00000001

> <PUBCHEM_MMFF94_ENERGY>
39.9465

> <PUBCHEM_FEATURE_SELFOVERLAP>
20.297

> <PUBCHEM_SHAPE_FINGERPRINT>
10366900 7 18201714093597309107
10618630 7 15285632166654364424
10799339 124 18342459214162315065
12077114 3 18334850585403823021
12251169 10 18409168835224539597
12382932 28 18410007740989781889
124424 183 17203609281127398944
12500047 106 18342453733710270227
12633257 1 18410008853412705193
12696612 119 18334859471353548516
12932764 1 17530952601462097180
13004483 165 17697020806223803575
13581323 91 18113617897749048743
14144814 61 18407760347960345757
14178342 30 18340473569346307466
15309172 13 18410013225942756151
15375462 189 17530956973902315592
15653759 3 18408325475335650577
15775835 57 17748824094448844201
16945 1 18410289237441329279
17804303 29 18263376788890195735
18186145 218 18059022674653864911
19049666 15 18122345670768755525
19862831 5 11959732655293492449
200 152 18130211757822500743
20361792 2 15574713629452115039
20442098 301 18334291010898960058
21501502 16 18264491873873837804
22445834 79 17894342293805954571
23402539 116 18270955843511501735
23559900 14 18340771429469940318
2748010 2 18192708938778721375
4028521 119 11527675146090925275
69090 78 18412261744717996831
7097593 13 18187632605484118154

> <PUBCHEM_SHAPE_MULTIPOLES>
314.42
7.11
1.92
1.19
1.12
0.71
-0.29
-1.06
-2.17
-0.79
0.13
0.28
0.02
0.23

> <PUBCHEM_SHAPE_SELFOVERLAP>
654.44

> <PUBCHEM_SHAPE_VOLUME>
182.8

> <PUBCHEM_COORDINATE_TYPE>
2
5
10

$$$$
