5484172
  -OEChem-07202400523D

 37 39  0     1  0  0  0  0  0999 V2000
    6.1793   -3.1013   -0.0877 Cl  0  0  0  0  0  0  0  0  0  0  0  0
   -4.2886    0.3730    0.0682 O   0  0  0  0  0  0  0  0  0  0  0  0
    0.7166    2.6813    0.0606 O   0  0  0  0  0  0  0  0  0  0  0  0
   -4.9927   -3.1541   -0.1008 O   0  0  0  0  0  0  0  0  0  0  0  0
   -5.1073   -1.6684    1.6114 O   0  0  0  0  0  0  0  0  0  0  0  0
    1.5649    0.5205    0.0174 N   0  0  0  0  0  0  0  0  0  0  0  0
    4.1465    1.5476    0.0090 N   0  0  0  0  0  0  0  0  0  0  0  0
   -4.4232   -0.8880   -0.5858 C   0  0  2  0  0  0  0  0  0  0  0  0
   -3.0528    0.9432    0.0660 C   0  0  0  0  0  0  0  0  0  0  0  0
   -0.5396    2.1034    0.0627 C   0  0  0  0  0  0  0  0  0  0  0  0
    2.6295   -0.3005   -0.0066 C   0  0  0  0  0  0  0  0  0  0  0  0
    3.9368    0.2196   -0.0109 C   0  0  0  0  0  0  0  0  0  0  0  0
   -2.4089    1.2164    1.2730 C   0  0  0  0  0  0  0  0  0  0  0  0
   -2.4300    1.2547   -1.1427 C   0  0  0  0  0  0  0  0  0  0  0  0
   -1.1425    1.8010    1.2712 C   0  0  0  0  0  0  0  0  0  0  0  0
   -1.1635    1.8393   -1.1443 C   0  0  0  0  0  0  0  0  0  0  0  0
    1.7960    1.8455    0.0369 C   0  0  0  0  0  0  0  0  0  0  0  0
   -5.4500   -0.7346   -1.6941 C   0  0  0  0  0  0  0  0  0  0  0  0
    2.4499   -1.6816   -0.0275 C   0  0  0  0  0  0  0  0  0  0  0  0
    5.0160   -0.6606   -0.0358 C   0  0  0  0  0  0  0  0  0  0  0  0
    3.0685    2.3518    0.0327 C   0  0  0  0  0  0  0  0  0  0  0  0
    3.5367   -2.5538   -0.0525 C   0  0  0  0  0  0  0  0  0  0  0  0
    4.8253   -2.0412   -0.0568 C   0  0  0  0  0  0  0  0  0  0  0  0
   -4.8668   -1.9133    0.4364 C   0  0  0  0  0  0  0  0  0  0  0  0
   -3.4655   -1.2360   -0.9947 H   0  0  0  0  0  0  0  0  0  0  0  0
   -2.8890    0.9755    2.2176 H   0  0  0  0  0  0  0  0  0  0  0  0
   -2.9204    1.0572   -2.0915 H   0  0  0  0  0  0  0  0  0  0  0  0
   -0.6445    2.0130    2.2127 H   0  0  0  0  0  0  0  0  0  0  0  0
   -0.6824    2.0830   -2.0869 H   0  0  0  0  0  0  0  0  0  0  0  0
   -6.4236   -0.4402   -1.2855 H   0  0  0  0  0  0  0  0  0  0  0  0
   -5.5858   -1.6678   -2.2496 H   0  0  0  0  0  0  0  0  0  0  0  0
   -5.1528    0.0482   -2.3992 H   0  0  0  0  0  0  0  0  0  0  0  0
    1.4440   -2.0971   -0.0244 H   0  0  0  0  0  0  0  0  0  0  0  0
    6.0278   -0.2571   -0.0391 H   0  0  0  0  0  0  0  0  0  0  0  0
    3.2712    3.4156    0.0481 H   0  0  0  0  0  0  0  0  0  0  0  0
    3.3590   -3.6256   -0.0683 H   0  0  0  0  0  0  0  0  0  0  0  0
   -5.2895   -3.8118    0.5637 H   0  0  0  0  0  0  0  0  0  0  0  0
  1 23  1  0  0  0  0
  2  8  1  0  0  0  0
  2  9  1  0  0  0  0
  3 10  1  0  0  0  0
  3 17  1  0  0  0  0
  4 24  1  0  0  0  0
  4 37  1  0  0  0  0
  5 24  2  0  0  0  0
  6 11  2  0  0  0  0
  6 17  1  0  0  0  0
  7 12  2  0  0  0  0
  7 21  1  0  0  0  0
  8 18  1  0  0  0  0
  8 24  1  0  0  0  0
  8 25  1  0  0  0  0
  9 13  2  0  0  0  0
  9 14  1  0  0  0  0
 10 15  2  0  0  0  0
 10 16  1  0  0  0  0
 11 12  1  0  0  0  0
 11 19  1  0  0  0  0
 12 20  1  0  0  0  0
 13 15  1  0  0  0  0
 13 26  1  0  0  0  0
 14 16  2  0  0  0  0
 14 27  1  0  0  0  0
 15 28  1  0  0  0  0
 16 29  1  0  0  0  0
 17 21  2  0  0  0  0
 18 30  1  0  0  0  0
 18 31  1  0  0  0  0
 18 32  1  0  0  0  0
 19 22  2  0  0  0  0
 19 33  1  0  0  0  0
 20 23  2  0  0  0  0
 20 34  1  0  0  0  0
 21 35  1  0  0  0  0
 22 23  1  0  0  0  0
 22 36  1  0  0  0  0
M  END
> <PUBCHEM_COMPOUND_CID>
5484172

> <PUBCHEM_CONFORMER_RMSD>
0.8

> <PUBCHEM_CONFORMER_DIVERSEORDER>
1
24
11
45
27
21
58
34
29
43
13
59
47
55
69
51
37
57
44
4
7
22
32
6
26
3
35
49
56
61
8
9
67
28
48
66
14
64
40
41
65
17
50
46
42
12
5
68
31
36
52
53
38
2
23
20
63
33
19
54
30
18
16
25
10
62
60
15
39

> <PUBCHEM_MMFF94_PARTIAL_CHARGES>
32
1 -0.18
10 0.08
11 0.31
12 0.31
13 -0.15
14 -0.15
15 -0.15
16 -0.15
17 0.39
19 -0.15
2 -0.36
20 -0.15
21 0.16
22 -0.15
23 0.18
24 0.66
26 0.15
27 0.15
28 0.15
29 0.15
3 -0.17
33 0.15
34 0.15
35 0.15
36 0.15
37 0.5
4 -0.65
5 -0.57
6 -0.62
7 -0.62
8 0.34
9 0.08

> <PUBCHEM_EFFECTIVE_ROTOR_COUNT>
5

> <PUBCHEM_PHARMACOPHORE_FEATURES>
10
1 2 acceptor
1 3 acceptor
1 4 acceptor
1 5 acceptor
1 6 acceptor
1 7 acceptor
3 4 5 24 anion
6 11 12 19 20 22 23 rings
6 6 7 11 12 17 21 rings
6 9 10 13 14 15 16 rings

> <PUBCHEM_HEAVY_ATOM_COUNT>
24

> <PUBCHEM_ATOM_DEF_STEREO_COUNT>
1

> <PUBCHEM_ATOM_UDEF_STEREO_COUNT>
0

> <PUBCHEM_BOND_DEF_STEREO_COUNT>
0

> <PUBCHEM_BOND_UDEF_STEREO_COUNT>
0

> <PUBCHEM_ISOTOPIC_ATOM_COUNT>
0

> <PUBCHEM_COMPONENT_COUNT>
1

> <PUBCHEM_CACTVS_TAUTO_COUNT>
1

> <PUBCHEM_CONFORMER_ID>
0053AE8C00000001

> <PUBCHEM_MMFF94_ENERGY>
77.9291

> <PUBCHEM_FEATURE_SELFOVERLAP>
50.903

> <PUBCHEM_SHAPE_FINGERPRINT>
10074138 170 17058385678036217729
10622 236 17414408879166876799
108634 29 17895764022586632890
11796584 16 18040983073418890353
11963148 33 18335975489200597498
12107183 9 18126577717279893817
12596602 18 16773238516950303969
12760667 363 18342735192176985799
13103583 49 17560816467334182675
13402501 40 18334576871338298035
13544653 18 18340488954198483021
14429380 30 18337674110005665946
14848178 5 18411131463680547315
14950920 106 16702294676646937595
15163728 17 12901823853462700329
15352361 1 18410573976677717007
15475509 35 17913771893230835523
15510800 12 18042408096344688683
15537594 2 18128822022010896959
17492 89 18411699897948470416
19319366 153 17912359037674308332
193927 3 18273221880229104549
20028762 73 18201431442264692894
20775530 9 18408600357743582627
21033650 10 16443337616669170101
221490 88 18409728426919886188
22393880 68 17895464843722650113
23424784 1240 18189344639689051115
23559900 14 18410283723020475177
2838139 119 9078853856867614227
314194 84 18271241737439795437
33382 64 18267027331125000105
44062 13 18262233314203959645
46194498 28 17242731137842311301
463206 1 18335144184856874171
5104073 3 18131634456754097776
5486654 36 18339089194265500825
6431902 208 18411417310707670575
7970288 3 18194682571295044378
9709674 26 18260553333013370560

> <PUBCHEM_SHAPE_MULTIPOLES>
462.34
14.19
3.68
1.09
0.83
1.2
0.01
14.28
-0.82
-1.17
0.2
1.7
-0.05
0.3

> <PUBCHEM_SHAPE_SELFOVERLAP>
1002.966

> <PUBCHEM_SHAPE_VOLUME>
253.2

> <PUBCHEM_COORDINATE_TYPE>
2
5
10

$$$$
