55790
  -OEChem-07202400543D

 31 32  0     0  0  0  0  0  0999 V2000
   -2.2340   -1.5560   -2.2122 Cl  0  0  0  0  0  0  0  0  0  0  0  0
   -5.1082    2.0311    0.5850 Cl  0  0  0  0  0  0  0  0  0  0  0  0
   -0.6813   -2.2141    1.1489 O   0  0  0  0  0  0  0  0  0  0  0  0
    0.3605   -1.8299    0.2981 N   0  0  0  0  0  0  0  0  0  0  0  0
    4.5930   -0.1774    0.0630 N   0  0  0  0  0  0  0  0  0  0  0  0
    1.1025   -0.1061   -1.3556 C   0  0  0  0  0  0  0  0  0  0  0  0
    0.0929   -0.7335   -0.3761 C   0  0  0  0  0  0  0  0  0  0  0  0
   -1.1927   -0.0776   -0.1701 C   0  0  0  0  0  0  0  0  0  0  0  0
    2.3696    0.3446   -0.6685 C   0  0  0  0  0  0  0  0  0  0  0  0
   -2.3094   -0.3803   -0.9493 C   0  0  0  0  0  0  0  0  0  0  0  0
   -1.2869    0.8763    0.8432 C   0  0  0  0  0  0  0  0  0  0  0  0
    2.4674    1.6239   -0.1635 C   0  0  0  0  0  0  0  0  0  0  0  0
    3.4322   -0.5170   -0.5412 C   0  0  0  0  0  0  0  0  0  0  0  0
   -3.5205    0.2713   -0.7153 C   0  0  0  0  0  0  0  0  0  0  0  0
   -2.4978    1.5279    1.0771 C   0  0  0  0  0  0  0  0  0  0  0  0
   -3.6145    1.2254    0.2979 C   0  0  0  0  0  0  0  0  0  0  0  0
    3.6460    2.0105    0.4650 C   0  0  0  0  0  0  0  0  0  0  0  0
    4.6698    1.0809    0.5516 C   0  0  0  0  0  0  0  0  0  0  0  0
   -0.2886   -3.3999    1.8220 C   0  0  0  0  0  0  0  0  0  0  0  0
    1.3347   -0.8554   -2.1226 H   0  0  0  0  0  0  0  0  0  0  0  0
    0.6377    0.7380   -1.8795 H   0  0  0  0  0  0  0  0  0  0  0  0
   -0.4254    1.1206    1.4595 H   0  0  0  0  0  0  0  0  0  0  0  0
    1.6459    2.3290   -0.2467 H   0  0  0  0  0  0  0  0  0  0  0  0
    3.3980   -1.5322   -0.9224 H   0  0  0  0  0  0  0  0  0  0  0  0
   -4.3926    0.0368   -1.3220 H   0  0  0  0  0  0  0  0  0  0  0  0
   -2.5565    2.2689    1.8702 H   0  0  0  0  0  0  0  0  0  0  0  0
    3.7594    3.0076    0.8745 H   0  0  0  0  0  0  0  0  0  0  0  0
    5.6093    1.3327    1.0325 H   0  0  0  0  0  0  0  0  0  0  0  0
    0.6097   -3.2183    2.4203 H   0  0  0  0  0  0  0  0  0  0  0  0
   -0.1060   -4.2036    1.1019 H   0  0  0  0  0  0  0  0  0  0  0  0
   -1.0993   -3.7041    2.4894 H   0  0  0  0  0  0  0  0  0  0  0  0
  1 10  1  0  0  0  0
  2 16  1  0  0  0  0
  3  4  1  0  0  0  0
  3 19  1  0  0  0  0
  4  7  2  3  0  0  0
  5 13  1  0  0  0  0
  5 18  2  0  0  0  0
  6  7  1  0  0  0  0
  6  9  1  0  0  0  0
  6 20  1  0  0  0  0
  6 21  1  0  0  0  0
  7  8  1  0  0  0  0
  8 10  2  0  0  0  0
  8 11  1  0  0  0  0
  9 12  1  0  0  0  0
  9 13  2  0  0  0  0
 10 14  1  0  0  0  0
 11 15  2  0  0  0  0
 11 22  1  0  0  0  0
 12 17  2  0  0  0  0
 12 23  1  0  0  0  0
 13 24  1  0  0  0  0
 14 16  2  0  0  0  0
 14 25  1  0  0  0  0
 15 16  1  0  0  0  0
 15 26  1  0  0  0  0
 17 18  1  0  0  0  0
 17 27  1  0  0  0  0
 18 28  1  0  0  0  0
 19 29  1  0  0  0  0
 19 30  1  0  0  0  0
 19 31  1  0  0  0  0
M  END
> <PUBCHEM_COMPOUND_CID>
55790

> <PUBCHEM_CONFORMER_RMSD>
0.6

> <PUBCHEM_CONFORMER_DIVERSEORDER>
1
18
24
35
11
20
34
31
10
14
3
21
39
22
9
36
17
27
29
12
13
32
26
7
19
25
30
5
23
8
28
16
33
6
15
37
4
2
38

> <PUBCHEM_MMFF94_PARTIAL_CHARGES>
26
1 -0.18
10 0.18
11 -0.15
12 -0.15
13 0.16
14 -0.15
15 -0.15
16 0.18
17 -0.15
18 0.16
19 0.28
2 -0.18
22 0.15
23 0.15
24 0.15
25 0.15
26 0.15
27 0.15
28 0.15
3 -0.22
4 -0.51
5 -0.62
6 0.2
7 0.3
8 0.09
9 -0.14

> <PUBCHEM_EFFECTIVE_ROTOR_COUNT>
4

> <PUBCHEM_PHARMACOPHORE_FEATURES>
4
1 4 acceptor
1 5 acceptor
6 5 9 12 13 17 18 rings
6 8 10 11 14 15 16 rings

> <PUBCHEM_HEAVY_ATOM_COUNT>
19

> <PUBCHEM_ATOM_DEF_STEREO_COUNT>
0

> <PUBCHEM_ATOM_UDEF_STEREO_COUNT>
0

> <PUBCHEM_BOND_DEF_STEREO_COUNT>
0

> <PUBCHEM_BOND_UDEF_STEREO_COUNT>
1

> <PUBCHEM_ISOTOPIC_ATOM_COUNT>
0

> <PUBCHEM_COMPONENT_COUNT>
1

> <PUBCHEM_CACTVS_TAUTO_COUNT>
1

> <PUBCHEM_CONFORMER_ID>
0000D9EE00000001

> <PUBCHEM_MMFF94_ENERGY>
56.2001

> <PUBCHEM_FEATURE_SELFOVERLAP>
20.297

> <PUBCHEM_SHAPE_FINGERPRINT>
10062212 137 18131059454911043966
121448 382 18116698789802978431
122479 349 18341336677362675108
12633257 1 18115290281396160424
12788726 201 17464838035276458586
14178000 29 9799396820240101073
14178342 30 17969500601461630722
14787075 74 18268996552218631075
14790565 3 17273711858041014009
15295992 7 18410300232763536872
15309172 13 17748545935165877815
17492 89 18060418045120443566
18186145 218 18408602548118511284
18915476 22 17606102997561251871
19765921 60 18411697673582692273
20832881 197 18122353367767361942
20871999 31 17131538510494031677
21033648 29 18041264522410188708
21339142 149 18340484585763088503
21524375 3 18341339885603050909
22079108 93 18335991925928779673
23227448 37 18060416936976513653
23352939 185 16484438684154638655
23402539 116 17846490435368853860
23419403 2 17255673626388298783
23557571 272 17131551751113184061
23558518 356 18193274323888843764
23559900 14 17131556029459793350
266924 1 18269252643891520135
298252 57 17775005657093153887
34934 24 18201718406293412213
351380 180 18202562865377664640
394222 165 18197501719065763179
4340502 62 18188221914247654659
46194498 28 11526791100367193009
465052 167 13551771629287082969
474 4 18411984654401852324
5104073 3 18202001031756752386
58807428 26 18040714744788648178
59755656 520 18259987076067051890
633830 44 18411697677545382748
69090 78 17917430899907508077
7364860 26 18050572846000578359
74978 22 18041847349677282476
81228 2 17317051564753147362
9709674 26 18271529809760618550
9981440 41 17913757578036123368

> <PUBCHEM_SHAPE_MULTIPOLES>
378.92
8.76
2.69
1.51
2.75
1.56
0.09
-6.58
-0.35
-0.85
-1.51
-0.79
1.22
-0.7

> <PUBCHEM_SHAPE_SELFOVERLAP>
784.902

> <PUBCHEM_SHAPE_VOLUME>
218.4

> <PUBCHEM_COORDINATE_TYPE>
2
5
10

$$$$
