56208
  -OEChem-07202400283D

 45 48  0     0  0  0  0  0  0999 V2000
   -2.7130   -3.2649   -0.3379 F   0  0  0  0  0  0  0  0  0  0  0  0
    0.9235    5.9567    0.0115 F   0  0  0  0  0  0  0  0  0  0  0  0
    2.2955   -3.5954   -0.2594 O   0  0  0  0  0  0  0  0  0  0  0  0
    4.6848   -2.9798    0.6599 O   0  0  0  0  0  0  0  0  0  0  0  0
    5.4535   -1.0380   -0.2722 O   0  0  0  0  0  0  0  0  0  0  0  0
   -3.3139   -0.5740   -0.0386 N   0  0  0  0  0  0  0  0  0  0  0  0
   -5.9599    0.4521    0.2690 N   0  0  0  0  0  0  0  0  0  0  0  0
    1.4977    0.4166    0.0610 N   0  0  0  0  0  0  0  0  0  0  0  0
   -3.6492    0.7586   -0.5521 C   0  0  0  0  0  0  0  0  0  0  0  0
   -4.1791   -1.0789    1.0361 C   0  0  0  0  0  0  0  0  0  0  0  0
   -5.1405    0.8490   -0.8748 C   0  0  0  0  0  0  0  0  0  0  0  0
   -5.6510   -0.9238    0.6555 C   0  0  0  0  0  0  0  0  0  0  0  0
   -1.9882   -1.0206   -0.0811 C   0  0  0  0  0  0  0  0  0  0  0  0
    0.4026   -0.5093   -0.0365 C   0  0  0  0  0  0  0  0  0  0  0  0
   -0.9423   -0.0979    0.0161 C   0  0  0  0  0  0  0  0  0  0  0  0
    0.6531   -1.8948   -0.1476 C   0  0  0  0  0  0  0  0  0  0  0  0
   -1.7158   -2.3771   -0.2191 C   0  0  0  0  0  0  0  0  0  0  0  0
   -0.3965   -2.8188   -0.2470 C   0  0  0  0  0  0  0  0  0  0  0  0
    2.0472   -2.4026   -0.1355 C   0  0  0  0  0  0  0  0  0  0  0  0
    2.7850   -0.1130    0.1243 C   0  0  0  0  0  0  0  0  0  0  0  0
    3.1258   -1.4044    0.0423 C   0  0  0  0  0  0  0  0  0  0  0  0
    1.3504    1.8423    0.0484 C   0  0  0  0  0  0  0  0  0  0  0  0
    1.1711    2.5430    1.2453 C   0  0  0  0  0  0  0  0  0  0  0  0
    1.3843    2.5436   -1.1612 C   0  0  0  0  0  0  0  0  0  0  0  0
    4.5457   -1.7543    0.1114 C   0  0  0  0  0  0  0  0  0  0  0  0
    1.0270    3.9303    1.2329 C   0  0  0  0  0  0  0  0  0  0  0  0
    1.2403    3.9310   -1.1738 C   0  0  0  0  0  0  0  0  0  0  0  0
    1.0617    4.6244    0.0234 C   0  0  0  0  0  0  0  0  0  0  0  0
   -3.3904    1.5221    0.1928 H   0  0  0  0  0  0  0  0  0  0  0  0
   -3.0884    0.9740   -1.4702 H   0  0  0  0  0  0  0  0  0  0  0  0
   -3.9921   -2.1352    1.2572 H   0  0  0  0  0  0  0  0  0  0  0  0
   -3.9685   -0.5184    1.9564 H   0  0  0  0  0  0  0  0  0  0  0  0
   -5.3871    1.8797   -1.1519 H   0  0  0  0  0  0  0  0  0  0  0  0
   -5.3786    0.2184   -1.7408 H   0  0  0  0  0  0  0  0  0  0  0  0
   -5.9039   -1.6085   -0.1639 H   0  0  0  0  0  0  0  0  0  0  0  0
   -6.2753   -1.2030    1.5113 H   0  0  0  0  0  0  0  0  0  0  0  0
   -6.9453    0.5169    0.0154 H   0  0  0  0  0  0  0  0  0  0  0  0
   -1.1633    0.9586    0.1409 H   0  0  0  0  0  0  0  0  0  0  0  0
   -0.2048   -3.8840   -0.3427 H   0  0  0  0  0  0  0  0  0  0  0  0
    3.5461    0.6545    0.2425 H   0  0  0  0  0  0  0  0  0  0  0  0
    1.1418    2.0136    2.1945 H   0  0  0  0  0  0  0  0  0  0  0  0
    1.5217    2.0147   -2.1011 H   0  0  0  0  0  0  0  0  0  0  0  0
    0.8876    4.4704    2.1646 H   0  0  0  0  0  0  0  0  0  0  0  0
    1.2668    4.4715   -2.1152 H   0  0  0  0  0  0  0  0  0  0  0  0
    5.6255   -3.2508    0.7231 H   0  0  0  0  0  0  0  0  0  0  0  0
  1 17  1  0  0  0  0
  2 28  1  0  0  0  0
  3 19  2  0  0  0  0
  4 25  1  0  0  0  0
  4 45  1  0  0  0  0
  5 25  2  0  0  0  0
  6  9  1  0  0  0  0
  6 10  1  0  0  0  0
  6 13  1  0  0  0  0
  7 11  1  0  0  0  0
  7 12  1  0  0  0  0
  7 37  1  0  0  0  0
  8 14  1  0  0  0  0
  8 20  1  0  0  0  0
  8 22  1  0  0  0  0
  9 11  1  0  0  0  0
  9 29  1  0  0  0  0
  9 30  1  0  0  0  0
 10 12  1  0  0  0  0
 10 31  1  0  0  0  0
 10 32  1  0  0  0  0
 11 33  1  0  0  0  0
 11 34  1  0  0  0  0
 12 35  1  0  0  0  0
 12 36  1  0  0  0  0
 13 15  1  0  0  0  0
 13 17  2  0  0  0  0
 14 15  2  0  0  0  0
 14 16  1  0  0  0  0
 15 38  1  0  0  0  0
 16 18  2  0  0  0  0
 16 19  1  0  0  0  0
 17 18  1  0  0  0  0
 18 39  1  0  0  0  0
 19 21  1  0  0  0  0
 20 21  2  0  0  0  0
 20 40  1  0  0  0  0
 21 25  1  0  0  0  0
 22 23  2  0  0  0  0
 22 24  1  0  0  0  0
 23 26  1  0  0  0  0
 23 41  1  0  0  0  0
 24 27  2  0  0  0  0
 24 42  1  0  0  0  0
 26 28  2  0  0  0  0
 26 43  1  0  0  0  0
 27 28  1  0  0  0  0
 27 44  1  0  0  0  0
M  END
> <PUBCHEM_COMPOUND_CID>
56208

> <PUBCHEM_CONFORMER_RMSD>
0.8

> <PUBCHEM_CONFORMER_DIVERSEORDER>
1
3
2
4

> <PUBCHEM_MMFF94_PARTIAL_CHARGES>
37
1 -0.19
10 0.37
11 0.27
12 0.27
13 0.1
14 0.1
15 -0.15
16 0.09
17 0.19
18 -0.15
19 0.47
2 -0.19
20 -0.05
21 0.03
22 0.1
23 -0.15
24 -0.15
25 0.71
26 -0.15
27 -0.15
28 0.19
3 -0.57
37 0.36
38 0.15
39 0.15
4 -0.65
40 0.15
41 0.15
42 0.15
43 0.15
44 0.15
45 0.5
5 -0.57
6 -0.84
7 -0.9
8 -0.3
9 0.37

> <PUBCHEM_EFFECTIVE_ROTOR_COUNT>
4.2

> <PUBCHEM_PHARMACOPHORE_FEATURES>
12
1 3 acceptor
1 4 acceptor
1 5 acceptor
1 6 cation
1 7 cation
1 7 donor
1 8 cation
3 4 5 25 anion
6 13 14 15 16 17 18 rings
6 22 23 24 26 27 28 rings
6 6 7 9 10 11 12 rings
6 8 14 16 19 20 21 rings

> <PUBCHEM_HEAVY_ATOM_COUNT>
28

> <PUBCHEM_ATOM_DEF_STEREO_COUNT>
0

> <PUBCHEM_ATOM_UDEF_STEREO_COUNT>
0

> <PUBCHEM_BOND_DEF_STEREO_COUNT>
0

> <PUBCHEM_BOND_UDEF_STEREO_COUNT>
0

> <PUBCHEM_ISOTOPIC_ATOM_COUNT>
0

> <PUBCHEM_COMPONENT_COUNT>
1

> <PUBCHEM_CACTVS_TAUTO_COUNT>
1

> <PUBCHEM_CONFORMER_ID>
0000DB9000000001

> <PUBCHEM_MMFF94_ENERGY>
97.6039

> <PUBCHEM_FEATURE_SELFOVERLAP>
60.985

> <PUBCHEM_SHAPE_FINGERPRINT>
10074138 170 15881486900040386843
10165383 225 17976275839030079213
10688039 33 18188774912123599374
10930396 42 18049404160267844178
10937287 8 17690001554119700973
1100329 8 18411983597829549499
11049842 53 17395585343099737284
11456790 92 18189060794491318857
12166972 35 18272368685550754283
12173636 292 17330272187107242285
12403259 226 18334290959939380461
12788726 201 18118120278149513954
13004483 165 18337382726549686730
13140716 1 18195245739937973883
13583140 156 18187092762887857395
13590594 115 18410576141573576921
138480 1 18410575106259572488
13965767 371 17827340391888570909
14068700 675 18059845135142773105
14363568 33 18335991964098701572
14466204 15 18266179435808350523
14849402 71 18338808909031810137
14866123 147 16969704391393534411
14955137 171 18410583880846350138
15081414 286 18341338820313836038
151778 21 18194128632108890849
15230672 131 17686905325999665700
1601671 61 18411419479703084854
16087824 20 18194685869787671233
16988056 13 18337656556369157421
17138139 8 16683674180695133485
17980427 23 17916006018753106558
18681886 176 18341887502650268035
18785283 64 18337393867325301515
20028762 73 15387512553940352045
20600515 1 18272380732633228310
20642791 105 17761197831579687778
20642791 178 17900543681838307364
20642791 239 18119273846288197300
21033648 29 17916284079499751819
21049683 271 18260842526352248028
21133410 127 17753038682277238045
21133410 62 17250325095806462829
21285901 2 17844252822212163630
21641784 216 18119267077403928068
21709351 56 18411693297407091983
21860390 5 18272938219335547895
22113638 7 18342171167870044775
23366157 5 18045774843629215402
23558518 356 18122332747191855139
23559900 14 18408598189290987209
24771293 8 18129647717131930946
283562 15 18048316648440978098
3178227 256 18336559239764503651
335352 9 18411699868016198711
345986 75 17679846138313407474
350125 39 18050007988880892735
4409770 3 17900809462318456612
5252454 2 17837789072657061849
57124632 79 18124591135506250985
6086070 43 18116970270739016007
6443956 14 18411419527179450352
653340 110 17907851804546056408
7808743 9 17041200710615831409
9777508 108 17474665053767343688
9981440 41 17473257060049817112

> <PUBCHEM_SHAPE_MULTIPOLES>
529.13
9.61
6.34
0.94
10.67
8.52
-0.05
-5.37
-0.71
-6.33
0.06
0.12
0.64
0.15

> <PUBCHEM_SHAPE_SELFOVERLAP>
1165.481

> <PUBCHEM_SHAPE_VOLUME>
283.4

> <PUBCHEM_COORDINATE_TYPE>
2
5
10

$$$$
