56945144
  -OEChem-07202400453D

 53 55  0     0  0  0  0  0  0999 V2000
   -4.6917   -1.2494   -0.1808 O   0  0  0  0  0  0  0  0  0  0  0  0
    0.7953    1.5904    0.0179 O   0  0  0  0  0  0  0  0  0  0  0  0
   -2.4636   -0.8484   -0.5033 O   0  0  0  0  0  0  0  0  0  0  0  0
   -3.9711    0.8597    0.0348 N   0  0  0  0  0  0  0  0  0  0  0  0
   -1.8374    1.8862   -0.1702 N   0  0  0  0  0  0  0  0  0  0  0  0
    1.6149   -1.9932    0.1987 N   0  0  0  0  0  0  0  0  0  0  0  0
    2.1664    1.4926   -0.2522 N   0  0  0  0  0  0  0  0  0  0  0  0
    1.1803   -0.6258    1.8248 N   0  0  0  0  0  0  0  0  0  0  0  0
    0.8145   -2.6760    1.0292 N   0  0  0  0  0  0  0  0  0  0  0  0
    0.5522   -1.8348    2.0220 N   0  0  0  0  0  0  0  0  0  0  0  0
   -4.4709   -2.6357   -0.4435 C   0  0  0  0  0  0  0  0  0  0  0  0
   -3.4785   -3.1736    0.5863 C   0  0  0  0  0  0  0  0  0  0  0  0
   -5.8159   -3.3478   -0.3168 C   0  0  0  0  0  0  0  0  0  0  0  0
   -3.9177   -2.7802   -1.8605 C   0  0  0  0  0  0  0  0  0  0  0  0
   -3.5876   -0.4383   -0.2415 C   0  0  0  0  0  0  0  0  0  0  0  0
   -3.1595    2.0160    0.0802 C   0  0  0  0  0  0  0  0  0  0  0  0
   -1.1017    3.0189   -0.1149 C   0  0  0  0  0  0  0  0  0  0  0  0
    2.6525    0.3348    0.0921 C   0  0  0  0  0  0  0  0  0  0  0  0
    4.1093    0.0767   -0.1346 C   0  0  0  0  0  0  0  0  0  0  0  0
    0.3587    2.8810   -0.3894 C   0  0  0  0  0  0  0  0  0  0  0  0
   -3.7774    3.2190    0.3818 C   0  0  0  0  0  0  0  0  0  0  0  0
    1.8320   -0.7458    0.6912 C   0  0  0  0  0  0  0  0  0  0  0  0
   -1.6232    4.2689    0.1773 C   0  0  0  0  0  0  0  0  0  0  0  0
   -2.9874    4.3622    0.4293 C   0  0  0  0  0  0  0  0  0  0  0  0
    4.8029   -0.7940    0.7060 C   0  0  0  0  0  0  0  0  0  0  0  0
    4.7729    0.7059   -1.1877 C   0  0  0  0  0  0  0  0  0  0  0  0
    6.1602   -1.0354    0.4935 C   0  0  0  0  0  0  0  0  0  0  0  0
    6.1302    0.4646   -1.4003 C   0  0  0  0  0  0  0  0  0  0  0  0
    6.8238   -0.4060   -0.5596 C   0  0  0  0  0  0  0  0  0  0  0  0
    2.1173   -2.5923   -1.0099 C   0  0  0  0  0  0  0  0  0  0  0  0
   -3.5047   -4.2698    0.6055 H   0  0  0  0  0  0  0  0  0  0  0  0
   -3.7233   -2.8154    1.5930 H   0  0  0  0  0  0  0  0  0  0  0  0
   -2.4352   -2.9105    0.3949 H   0  0  0  0  0  0  0  0  0  0  0  0
   -5.7281   -4.4226   -0.5062 H   0  0  0  0  0  0  0  0  0  0  0  0
   -6.2376   -3.2058    0.6849 H   0  0  0  0  0  0  0  0  0  0  0  0
   -6.5443   -2.9302   -1.0213 H   0  0  0  0  0  0  0  0  0  0  0  0
   -3.9944   -3.8214   -2.1962 H   0  0  0  0  0  0  0  0  0  0  0  0
   -2.8631   -2.5142   -1.9677 H   0  0  0  0  0  0  0  0  0  0  0  0
   -4.4805   -2.1582   -2.5663 H   0  0  0  0  0  0  0  0  0  0  0  0
   -4.9594    1.0011    0.2294 H   0  0  0  0  0  0  0  0  0  0  0  0
    0.5381    3.0120   -1.4629 H   0  0  0  0  0  0  0  0  0  0  0  0
    0.9270    3.6359    0.1672 H   0  0  0  0  0  0  0  0  0  0  0  0
   -4.8426    3.2863    0.5776 H   0  0  0  0  0  0  0  0  0  0  0  0
   -0.9993    5.1556    0.2104 H   0  0  0  0  0  0  0  0  0  0  0  0
   -3.4341    5.3242    0.6619 H   0  0  0  0  0  0  0  0  0  0  0  0
    4.3177   -1.2873    1.5436 H   0  0  0  0  0  0  0  0  0  0  0  0
    4.2513    1.3818   -1.8601 H   0  0  0  0  0  0  0  0  0  0  0  0
    6.7013   -1.7107    1.1498 H   0  0  0  0  0  0  0  0  0  0  0  0
    6.6468    0.9531   -2.2214 H   0  0  0  0  0  0  0  0  0  0  0  0
    7.8807   -0.5936   -0.7250 H   0  0  0  0  0  0  0  0  0  0  0  0
    3.0473   -3.1140   -0.7728 H   0  0  0  0  0  0  0  0  0  0  0  0
    1.3744   -3.2982   -1.3906 H   0  0  0  0  0  0  0  0  0  0  0  0
    2.2915   -1.8150   -1.7572 H   0  0  0  0  0  0  0  0  0  0  0  0
  1 11  1  0  0  0  0
  1 15  1  0  0  0  0
  2  7  1  0  0  0  0
  2 20  1  0  0  0  0
  3 15  2  0  0  0  0
  4 15  1  0  0  0  0
  4 16  1  0  0  0  0
  4 40  1  0  0  0  0
  5 16  1  0  0  0  0
  5 17  2  0  0  0  0
  6  9  1  0  0  0  0
  6 22  1  0  0  0  0
  6 30  1  0  0  0  0
  7 18  2  0  0  0  0
  8 10  1  0  0  0  0
  8 22  2  0  0  0  0
  9 10  2  0  0  0  0
 11 12  1  0  0  0  0
 11 13  1  0  0  0  0
 11 14  1  0  0  0  0
 12 31  1  0  0  0  0
 12 32  1  0  0  0  0
 12 33  1  0  0  0  0
 13 34  1  0  0  0  0
 13 35  1  0  0  0  0
 13 36  1  0  0  0  0
 14 37  1  0  0  0  0
 14 38  1  0  0  0  0
 14 39  1  0  0  0  0
 16 21  2  0  0  0  0
 17 20  1  0  0  0  0
 17 23  1  0  0  0  0
 18 19  1  0  0  0  0
 18 22  1  0  0  0  0
 19 25  2  0  0  0  0
 19 26  1  0  0  0  0
 20 41  1  0  0  0  0
 20 42  1  0  0  0  0
 21 24  1  0  0  0  0
 21 43  1  0  0  0  0
 23 24  2  0  0  0  0
 23 44  1  0  0  0  0
 24 45  1  0  0  0  0
 25 27  1  0  0  0  0
 25 46  1  0  0  0  0
 26 28  2  0  0  0  0
 26 47  1  0  0  0  0
 27 29  2  0  0  0  0
 27 48  1  0  0  0  0
 28 29  1  0  0  0  0
 28 49  1  0  0  0  0
 29 50  1  0  0  0  0
 30 51  1  0  0  0  0
 30 52  1  0  0  0  0
 30 53  1  0  0  0  0
M  END
> <PUBCHEM_COMPOUND_CID>
56945144

> <PUBCHEM_CONFORMER_RMSD>
1.2

> <PUBCHEM_CONFORMER_DIVERSEORDER>
1
67
70
120
123
83
84
44
37
107
49
40
65
61
98
47
26
50
21
57
80
48
95
68
45
36
127
54
96
76
77
109
110
115
128
78
56
87
88
93
4
101
108
81
32
112
42
102
85
30
31
113
28
94
6
58
71
19
66
106
23
10
99
64
24
73
92
125
124
86
62
41
118
29
5
63
75
20
39
53
82
119
12
60
114
89
116
52
121
90
2
17
55
69
51
111
97
91
38
16
15
43
129
33
35
126
74
104
117
14
18
34
100
46
79
9
103
72
122
22
105
7
8
27
11
3
25
59
13

> <PUBCHEM_MMFF94_PARTIAL_CHARGES>
35
1 -0.43
11 0.28
15 0.78
16 0.43
17 0.17
18 0.45
19 0.09
2 -0.22
20 0.42
21 -0.15
22 0.1
23 -0.15
24 -0.15
25 -0.15
26 -0.15
27 -0.15
28 -0.15
29 -0.15
3 -0.57
30 0.26
4 -0.55
40 0.37
43 0.15
44 0.15
45 0.15
46 0.15
47 0.15
48 0.15
49 0.15
5 -0.62
50 0.15
6 0.31
7 -0.51
8 -0.34
9 -0.42

> <PUBCHEM_EFFECTIVE_ROTOR_COUNT>
9

> <PUBCHEM_PHARMACOPHORE_FEATURES>
9
1 3 acceptor
1 4 donor
1 5 acceptor
1 7 acceptor
3 6 8 22 cation
4 11 12 13 14 hydrophobe
5 6 8 9 10 22 rings
6 19 25 26 27 28 29 rings
6 5 16 17 21 23 24 rings

> <PUBCHEM_HEAVY_ATOM_COUNT>
30

> <PUBCHEM_ATOM_DEF_STEREO_COUNT>
0

> <PUBCHEM_ATOM_UDEF_STEREO_COUNT>
0

> <PUBCHEM_BOND_DEF_STEREO_COUNT>
1

> <PUBCHEM_BOND_UDEF_STEREO_COUNT>
0

> <PUBCHEM_ISOTOPIC_ATOM_COUNT>
0

> <PUBCHEM_COMPONENT_COUNT>
1

> <PUBCHEM_CACTVS_TAUTO_COUNT>
3

> <PUBCHEM_CONFORMER_ID>
0364E9F800000001

> <PUBCHEM_MMFF94_ENERGY>
81.7669

> <PUBCHEM_FEATURE_SELFOVERLAP>
45.674

> <PUBCHEM_SHAPE_FINGERPRINT>
10462674 296 17841983679473771519
10670039 82 18408037425122907302
11315621 246 18338244756498271452
11513181 2 18266746792404414742
12166972 35 17749669722138968759
12293681 4 18262524800517699018
12553582 1 18337942502690840955
12788726 201 18337659833702672667
13631057 29 18412543197745357605
13782708 43 17489864973019169846
14068700 675 18337672018008270949
14114206 34 18263059111945097957
14279260 333 18333725802547732178
14856354 85 18339930418939231870
14866123 147 18412549812933789121
14931854 50 18114449167748871495
15250474 111 18189889834321088298
15400415 2 17762899870742179328
15876981 60 18335988635751982781
15968369 153 18127126601331055372
15968369 26 17254260741288532125
19319366 153 17751929017002700129
20775530 9 18337380665023179293
21796203 349 17902829501908103219
329604 57 18335422412980707774
3610482 184 18042992937777429420
463206 1 18192433189631823187
5171179 24 18200308948098033112
5309563 4 18268145543156576679

> <PUBCHEM_SHAPE_MULTIPOLES>
564.91
14.18
5.5
1.22
13.25
3.55
0.09
-7.52
-3.4
-10.37
0.04
0.56
-0.79
-1.74

> <PUBCHEM_SHAPE_SELFOVERLAP>
1197.865

> <PUBCHEM_SHAPE_VOLUME>
314.9

> <PUBCHEM_COORDINATE_TYPE>
2
5
10

$$$$
