57414497
  -OEChem-07202400453D

 42 45  0     0  0  0  0  0  0999 V2000
   -6.2524   -1.3873    0.7169 F   0  0  0  0  0  0  0  0  0  0  0  0
   -4.4800   -2.6384    0.8610 F   0  0  0  0  0  0  0  0  0  0  0  0
   -4.7956   -1.0407    2.2934 F   0  0  0  0  0  0  0  0  0  0  0  0
   -0.0447   -0.8610   -2.0323 O   0  5  0  0  0  0  0  0  0  0  0  0
   -0.9033    2.5592    1.0550 O   0  0  0  0  0  0  0  0  0  0  0  0
    1.6286    0.2608   -1.0444 N   0  0  0  0  0  0  0  0  0  0  0  0
    1.2758    2.0842    0.5155 N   0  3  0  0  0  0  0  0  0  0  0  0
    5.2001   -2.3948    0.4263 N   0  0  0  0  0  0  0  0  0  0  0  0
    3.0257   -3.3610    0.8076 N   0  0  0  0  0  0  0  0  0  0  0  0
    2.1377    1.2982   -0.2001 C   0  0  0  0  0  0  0  0  0  0  0  0
   -0.6715    0.8161   -0.5177 C   0  0  0  0  0  0  0  0  0  0  0  0
    2.6729   -0.5539   -1.7055 C   0  0  0  0  0  0  0  0  0  0  0  0
    0.2231    0.0605   -1.2055 C   0  0  0  0  0  0  0  0  0  0  0  0
   -0.1418    1.8604    0.3921 C   0  0  0  0  0  0  0  0  0  0  0  0
   -2.1321    0.6462   -0.6469 C   0  0  0  0  0  0  0  0  0  0  0  0
    3.5252    1.5648   -0.0600 C   0  0  0  0  0  0  0  0  0  0  0  0
    1.7362    3.0661    1.3318 C   0  0  0  0  0  0  0  0  0  0  0  0
    3.2766   -1.5280   -0.7321 C   0  0  0  0  0  0  0  0  0  0  0  0
   -2.8085   -0.2386    0.1929 C   0  0  0  0  0  0  0  0  0  0  0  0
    3.9903    2.5733    0.7742 C   0  0  0  0  0  0  0  0  0  0  0  0
   -2.8359    1.3702   -1.6094 C   0  0  0  0  0  0  0  0  0  0  0  0
    3.0844    3.3322    1.4809 C   0  0  0  0  0  0  0  0  0  0  0  0
   -4.1887   -0.3996    0.0702 C   0  0  0  0  0  0  0  0  0  0  0  0
   -4.2159    1.2092   -1.7323 C   0  0  0  0  0  0  0  0  0  0  0  0
   -4.8925    0.3245   -0.8923 C   0  0  0  0  0  0  0  0  0  0  0  0
    4.6254   -1.5359   -0.4412 C   0  0  0  0  0  0  0  0  0  0  0  0
    2.5178   -2.4725   -0.0715 C   0  0  0  0  0  0  0  0  0  0  0  0
   -4.9113   -1.3468    0.9672 C   0  0  0  0  0  0  0  0  0  0  0  0
    4.3543   -3.2675    1.0063 C   0  0  0  0  0  0  0  0  0  0  0  0
    3.4253    0.0748   -2.1983 H   0  0  0  0  0  0  0  0  0  0  0  0
    2.2837   -1.1445   -2.5453 H   0  0  0  0  0  0  0  0  0  0  0  0
    4.2899    1.0558   -0.6278 H   0  0  0  0  0  0  0  0  0  0  0  0
    1.0006    3.6513    1.8726 H   0  0  0  0  0  0  0  0  0  0  0  0
   -2.2648   -0.8056    0.9458 H   0  0  0  0  0  0  0  0  0  0  0  0
    5.0549    2.7686    0.8571 H   0  0  0  0  0  0  0  0  0  0  0  0
   -2.3229    2.0644   -2.2707 H   0  0  0  0  0  0  0  0  0  0  0  0
    3.4202    4.1276    2.1376 H   0  0  0  0  0  0  0  0  0  0  0  0
   -4.7637    1.7729   -2.4817 H   0  0  0  0  0  0  0  0  0  0  0  0
   -5.9674    0.2137   -1.0044 H   0  0  0  0  0  0  0  0  0  0  0  0
    5.3228   -0.8605   -0.9252 H   0  0  0  0  0  0  0  0  0  0  0  0
    1.4491   -2.5661   -0.2258 H   0  0  0  0  0  0  0  0  0  0  0  0
    4.7891   -3.9691    1.7076 H   0  0  0  0  0  0  0  0  0  0  0  0
  1 28  1  0  0  0  0
  2 28  1  0  0  0  0
  3 28  1  0  0  0  0
  4 13  1  0  0  0  0
  5 14  2  0  0  0  0
  6 10  1  0  0  0  0
  6 12  1  0  0  0  0
  6 13  1  0  0  0  0
  7 10  1  0  0  0  0
  7 14  1  0  0  0  0
  7 17  2  0  0  0  0
  8 26  2  0  0  0  0
  8 29  1  0  0  0  0
  9 27  1  0  0  0  0
  9 29  2  0  0  0  0
 10 16  2  0  0  0  0
 11 13  2  0  0  0  0
 11 14  1  0  0  0  0
 11 15  1  0  0  0  0
 12 18  1  0  0  0  0
 12 30  1  0  0  0  0
 12 31  1  0  0  0  0
 15 19  2  0  0  0  0
 15 21  1  0  0  0  0
 16 20  1  0  0  0  0
 16 32  1  0  0  0  0
 17 22  1  0  0  0  0
 17 33  1  0  0  0  0
 18 26  1  0  0  0  0
 18 27  2  0  0  0  0
 19 23  1  0  0  0  0
 19 34  1  0  0  0  0
 20 22  2  0  0  0  0
 20 35  1  0  0  0  0
 21 24  2  0  0  0  0
 21 36  1  0  0  0  0
 22 37  1  0  0  0  0
 23 25  2  0  0  0  0
 23 28  1  0  0  0  0
 24 25  1  0  0  0  0
 24 38  1  0  0  0  0
 25 39  1  0  0  0  0
 26 40  1  0  0  0  0
 27 41  1  0  0  0  0
 29 42  1  0  0  0  0
M  CHG  2   4  -1   7   1
M  END
> <PUBCHEM_COMPOUND_CID>
57414497

> <PUBCHEM_CONFORMER_RMSD>
0.8

> <PUBCHEM_CONFORMER_DIVERSEORDER>
1
15
21
8
17
10
16
7
22
2
19
4
9
3
18
24
12
13
6
20
11
14
5
23

> <PUBCHEM_MMFF94_PARTIAL_CHARGES>
40
1 -0.34
10 0.46
11 -0.01
12 0.51
13 -0.05
14 0.95
15 0.03
16 -0.15
17 0.21
18 -0.14
19 -0.15
2 -0.34
20 -0.15
21 -0.15
22 -0.15
23 -0.14
24 -0.15
25 -0.15
26 0.16
27 0.16
28 1.16
29 0.47
3 -0.34
32 0.15
33 0.15
34 0.15
35 0.15
36 0.15
37 0.15
38 0.15
39 0.15
4 -0.85
40 0.15
41 0.15
42 0.15
5 -0.57
6 -0.57
7 -0.12
8 -0.62
9 -0.62

> <PUBCHEM_EFFECTIVE_ROTOR_COUNT>
4

> <PUBCHEM_PHARMACOPHORE_FEATURES>
8
1 5 acceptor
1 6 cation
1 8 acceptor
3 8 9 29 cation
6 15 19 21 23 24 25 rings
6 6 7 10 11 13 14 rings
6 7 10 16 17 20 22 rings
6 8 9 18 26 27 29 rings

> <PUBCHEM_HEAVY_ATOM_COUNT>
29

> <PUBCHEM_ATOM_DEF_STEREO_COUNT>
0

> <PUBCHEM_ATOM_UDEF_STEREO_COUNT>
0

> <PUBCHEM_BOND_DEF_STEREO_COUNT>
0

> <PUBCHEM_BOND_UDEF_STEREO_COUNT>
0

> <PUBCHEM_ISOTOPIC_ATOM_COUNT>
0

> <PUBCHEM_COMPONENT_COUNT>
1

> <PUBCHEM_CACTVS_TAUTO_COUNT>
1

> <PUBCHEM_CONFORMER_ID>
036C136100000001

> <PUBCHEM_MMFF94_ENERGY>
101.6446

> <PUBCHEM_FEATURE_SELFOVERLAP>
40.62

> <PUBCHEM_SHAPE_FINGERPRINT>
10074138 170 17406261141221830432
10305334 12 15833891717754360136
1100329 8 18271509954153455910
11070050 100 17772180075524068176
11370993 144 18412269445858258617
11405975 8 18337954493944476509
11475781 23 17242420946972716503
11578080 2 18042953291003632740
11796584 16 17823413790783134374
11963148 33 18119523494977768659
12422481 6 17059500603831852973
12549972 3 18336251354712454393
12553582 1 17988649545082600718
12633257 1 18060427919429312351
12644460 14 18059857302573989524
131258 43 17983033167666040166
13140716 1 17915181213513612224
13533116 47 18412267263645386387
13583140 156 18410846672735929037
13782708 43 18335421279695092383
14251751 18 18040999501109939918
14910302 57 17967525771129934415
14950920 106 18200887240059153307
14955137 171 18201157642636782526
15475509 35 18333455352066040979
15927050 60 18126555963639252110
17909252 39 18333456425718227131
19319366 153 18410014373421854246
20567600 70 18336822001384173506
21033650 10 16588583093961011749
21065201 7 17603579712622128517
21421861 104 18131359608917140584
21796203 349 18200893798221357098
23557571 272 17894623790796072213
23559900 14 18113893840882021605
244849 19 18116970278753853821
25222932 49 18126568048875720879
2747138 104 18269262471415100962
3178227 256 18270399529225095728
3421961 26 18411136939610875496
345986 75 17632864109289600297
4015057 19 18197474308690514253
4058900 60 18196658608380831960
437795 51 18410579526640380142
439807 62 17822300054761939131
5104073 3 18271814506026260873
563151 40 17836939167406702100
56638632 33 17173188925323590091
613672 6 18055906598497846726
6371380 46 18119803613425036221
6823239 73 18261943068713964634
8863177 126 18335987544603779815
9841814 1 18201442454544138372

> <PUBCHEM_SHAPE_MULTIPOLES>
543.32
11.9
4.02
1.66
10.48
0.05
-0.09
7.68
2.79
-5.77
2.3
1.06
-0.01
2.09

> <PUBCHEM_SHAPE_SELFOVERLAP>
1207.553

> <PUBCHEM_SHAPE_VOLUME>
289.5

> <PUBCHEM_COORDINATE_TYPE>
2
5
10

$$$$
