5889665
  -OEChem-07202400473D

 49 51  0     0  0  0  0  0  0999 V2000
   -2.7628   -5.0749   -1.1919 Cl  0  0  0  0  0  0  0  0  0  0  0  0
   -4.4603    3.1309   -1.2209 O   0  0  0  0  0  0  0  0  0  0  0  0
   -2.5273    0.4836    2.4500 O   0  0  0  0  0  0  0  0  0  0  0  0
    3.9981    1.2092   -1.7964 O   0  0  0  0  0  0  0  0  0  0  0  0
    5.6298    0.3643    0.2892 O   0  0  0  0  0  0  0  0  0  0  0  0
   -2.8370    1.4493    0.3598 N   0  0  0  0  0  0  0  0  0  0  0  0
   -2.3467    1.9816   -0.9187 C   0  0  0  0  0  0  0  0  0  0  0  0
   -4.2969    1.3716    0.4384 C   0  0  0  0  0  0  0  0  0  0  0  0
   -3.0401    3.3005   -1.2359 C   0  0  0  0  0  0  0  0  0  0  0  0
   -4.9162    2.7127    0.0685 C   0  0  0  0  0  0  0  0  0  0  0  0
   -2.0696    0.9197    1.3921 C   0  0  0  0  0  0  0  0  0  0  0  0
    0.0623   -0.1660    0.6800 C   0  0  0  0  0  0  0  0  0  0  0  0
   -0.6052    0.8719    1.2124 C   0  0  0  0  0  0  0  0  0  0  0  0
    1.5387   -0.0239    0.5730 C   0  0  0  0  0  0  0  0  0  0  0  0
   -0.6395   -1.3846    0.2154 C   0  0  0  0  0  0  0  0  0  0  0  0
    2.0723    0.5303   -0.5713 C   0  0  0  0  0  0  0  0  0  0  0  0
    2.3254   -0.4512    1.6218 C   0  0  0  0  0  0  0  0  0  0  0  0
    3.4571    0.6634   -0.6715 C   0  0  0  0  0  0  0  0  0  0  0  0
   -0.8309   -2.4275    1.1015 C   0  0  0  0  0  0  0  0  0  0  0  0
   -1.0835   -1.4461   -1.0917 C   0  0  0  0  0  0  0  0  0  0  0  0
    4.2761    0.2394    0.3750 C   0  0  0  0  0  0  0  0  0  0  0  0
    3.7102   -0.3181    1.5217 C   0  0  0  0  0  0  0  0  0  0  0  0
   -1.4913   -3.5756    0.6636 C   0  0  0  0  0  0  0  0  0  0  0  0
   -1.7439   -2.5941   -1.5294 C   0  0  0  0  0  0  0  0  0  0  0  0
   -1.9478   -3.6588   -0.6518 C   0  0  0  0  0  0  0  0  0  0  0  0
    4.3283    0.3141   -2.8566 C   0  0  0  0  0  0  0  0  0  0  0  0
    6.2007    1.5782    0.7738 C   0  0  0  0  0  0  0  0  0  0  0  0
   -2.5916    1.2360   -1.6834 H   0  0  0  0  0  0  0  0  0  0  0  0
   -1.2630    2.1190   -0.9042 H   0  0  0  0  0  0  0  0  0  0  0  0
   -4.6259    1.0617    1.4347 H   0  0  0  0  0  0  0  0  0  0  0  0
   -4.6070    0.6000   -0.2763 H   0  0  0  0  0  0  0  0  0  0  0  0
   -2.7625    4.0808   -0.5173 H   0  0  0  0  0  0  0  0  0  0  0  0
   -2.7532    3.6455   -2.2340 H   0  0  0  0  0  0  0  0  0  0  0  0
   -6.0062    2.6252    0.0275 H   0  0  0  0  0  0  0  0  0  0  0  0
   -4.6683    3.4849    0.8066 H   0  0  0  0  0  0  0  0  0  0  0  0
   -0.0845    1.7674    1.5442 H   0  0  0  0  0  0  0  0  0  0  0  0
    1.4377    0.8635   -1.3883 H   0  0  0  0  0  0  0  0  0  0  0  0
    1.8957   -0.8863    2.5196 H   0  0  0  0  0  0  0  0  0  0  0  0
   -0.4812   -2.3740    2.1288 H   0  0  0  0  0  0  0  0  0  0  0  0
   -0.9232   -0.6282   -1.7882 H   0  0  0  0  0  0  0  0  0  0  0  0
    4.3421   -0.6512    2.3405 H   0  0  0  0  0  0  0  0  0  0  0  0
   -1.6435   -4.3973    1.3587 H   0  0  0  0  0  0  0  0  0  0  0  0
   -2.0926   -2.6455   -2.5577 H   0  0  0  0  0  0  0  0  0  0  0  0
    3.4315   -0.1986   -3.2187 H   0  0  0  0  0  0  0  0  0  0  0  0
    5.0720   -0.4177   -2.5258 H   0  0  0  0  0  0  0  0  0  0  0  0
    4.7533    0.8977   -3.6778 H   0  0  0  0  0  0  0  0  0  0  0  0
    5.9945    1.6992    1.8420 H   0  0  0  0  0  0  0  0  0  0  0  0
    5.8123    2.4363    0.2163 H   0  0  0  0  0  0  0  0  0  0  0  0
    7.2835    1.5289    0.6300 H   0  0  0  0  0  0  0  0  0  0  0  0
  1 25  1  0  0  0  0
  2  9  1  0  0  0  0
  2 10  1  0  0  0  0
  3 11  2  0  0  0  0
  4 18  1  0  0  0  0
  4 26  1  0  0  0  0
  5 21  1  0  0  0  0
  5 27  1  0  0  0  0
  6  7  1  0  0  0  0
  6  8  1  0  0  0  0
  6 11  1  0  0  0  0
  7  9  1  0  0  0  0
  7 28  1  0  0  0  0
  7 29  1  0  0  0  0
  8 10  1  0  0  0  0
  8 30  1  0  0  0  0
  8 31  1  0  0  0  0
  9 32  1  0  0  0  0
  9 33  1  0  0  0  0
 10 34  1  0  0  0  0
 10 35  1  0  0  0  0
 11 13  1  0  0  0  0
 12 13  2  0  0  0  0
 12 14  1  0  0  0  0
 12 15  1  0  0  0  0
 13 36  1  0  0  0  0
 14 16  2  0  0  0  0
 14 17  1  0  0  0  0
 15 19  2  0  0  0  0
 15 20  1  0  0  0  0
 16 18  1  0  0  0  0
 16 37  1  0  0  0  0
 17 22  2  0  0  0  0
 17 38  1  0  0  0  0
 18 21  2  0  0  0  0
 19 23  1  0  0  0  0
 19 39  1  0  0  0  0
 20 24  2  0  0  0  0
 20 40  1  0  0  0  0
 21 22  1  0  0  0  0
 22 41  1  0  0  0  0
 23 25  2  0  0  0  0
 23 42  1  0  0  0  0
 24 25  1  0  0  0  0
 24 43  1  0  0  0  0
 26 44  1  0  0  0  0
 26 45  1  0  0  0  0
 26 46  1  0  0  0  0
 27 47  1  0  0  0  0
 27 48  1  0  0  0  0
 27 49  1  0  0  0  0
M  END
> <PUBCHEM_COMPOUND_CID>
5889665

> <PUBCHEM_CONFORMER_RMSD>
0.8

> <PUBCHEM_CONFORMER_DIVERSEORDER>
1
29
21
26
12
4
24
8
16
31
27
30
34
18
9
22
33
32
20
23
15
28
10
17
5
13
3
25
19
2
14
7
6
11

> <PUBCHEM_MMFF94_PARTIAL_CHARGES>
35
1 -0.18
10 0.28
11 0.62
12 -0.06
13 -0.14
14 0.03
15 0.03
16 -0.15
17 -0.15
18 0.08
19 -0.15
2 -0.56
20 -0.15
21 0.08
22 -0.15
23 -0.15
24 -0.15
25 0.18
26 0.28
27 0.28
3 -0.57
36 0.15
37 0.15
38 0.15
39 0.15
4 -0.36
40 0.15
41 0.15
42 0.15
43 0.15
5 -0.36
6 -0.66
7 0.3
8 0.3
9 0.28

> <PUBCHEM_EFFECTIVE_ROTOR_COUNT>
7.2

> <PUBCHEM_PHARMACOPHORE_FEATURES>
7
1 2 acceptor
1 3 acceptor
1 4 acceptor
1 5 acceptor
6 14 16 17 18 21 22 rings
6 15 19 20 23 24 25 rings
6 2 6 7 8 9 10 rings

> <PUBCHEM_HEAVY_ATOM_COUNT>
27

> <PUBCHEM_ATOM_DEF_STEREO_COUNT>
0

> <PUBCHEM_ATOM_UDEF_STEREO_COUNT>
0

> <PUBCHEM_BOND_DEF_STEREO_COUNT>
1

> <PUBCHEM_BOND_UDEF_STEREO_COUNT>
0

> <PUBCHEM_ISOTOPIC_ATOM_COUNT>
0

> <PUBCHEM_COMPONENT_COUNT>
1

> <PUBCHEM_CACTVS_TAUTO_COUNT>
1

> <PUBCHEM_CONFORMER_ID>
0059DE8100000001

> <PUBCHEM_MMFF94_ENERGY>
105.4627

> <PUBCHEM_FEATURE_SELFOVERLAP>
35.528

> <PUBCHEM_SHAPE_FINGERPRINT>
105312 117 18341334409398448965
10815517 723 18057890333019563903
11101153 10 17831860523340935708
11115154 58 17832691754168542727
11578080 2 17986948755224375272
11991303 11 18338248106477881175
12160290 23 18341342183500543963
12714826 92 17915757563653876386
12788726 201 18262520432715105543
13149001 5 17916852621226584625
133893 2 17621331134605242267
13583140 156 18260272962133399496
13681431 1 17259335000029606587
13899415 180 17552055712871051559
13911987 19 18341607062829410001
14251757 17 16415181378660230645
15131766 46 14925943568157652646
15163728 17 18046647615391233773
15463212 79 18335405864255230705
15664445 248 17256802829003737645
15849732 13 17972310716890771578
16752209 62 18341602767650928939
17539 30 18197489830390968199
17980427 26 17198292996499709211
1813 80 17624144093007684295
19958102 18 18343021077457817335
20197701 30 18338231536277300851
21344244 181 17417819400832015575
21756936 100 17460056139480601572
23227448 37 18338236076079279980
23557571 272 17988361593606391640
23559900 14 17244156920438899195
23598288 3 18115319975977001658
26353 1 17693375950978522295
3057174 1 18197215845942756327
3729539 64 17765458464454008606
4015057 19 16917071036512874952
4017518 198 18055620721649980498
4409770 3 18341324591821005063
44802255 64 18190768395698963526
53917941 68 18339628006106962544
59755656 520 18059864921877400667
6669772 16 18128815240047222070

> <PUBCHEM_SHAPE_MULTIPOLES>
529.06
10.48
4.87
2.02
13.07
5.04
0.54
-8.04
1.49
-10.19
2.07
1.08
-0.11
-0.41

> <PUBCHEM_SHAPE_SELFOVERLAP>
1120.75

> <PUBCHEM_SHAPE_VOLUME>
298.1

> <PUBCHEM_COORDINATE_TYPE>
2
5
10

$$$$
