6125184
  -OEChem-07202400473D

 36 37  0     0  0  0  0  0  0999 V2000
   -5.5158   -2.2699   -1.5226 F   0  0  0  0  0  0  0  0  0  0  0  0
   -6.8681    1.6249    0.8072 F   0  0  0  0  0  0  0  0  0  0  0  0
    4.8264    1.7772   -2.1383 O   0  0  0  0  0  0  0  0  0  0  0  0
   -1.0617   -1.2653   -0.4520 O   0  0  0  0  0  0  0  0  0  0  0  0
    2.6328    1.3308   -1.7438 O   0  0  0  0  0  0  0  0  0  0  0  0
   -2.2221    0.5101    0.5553 N   0  0  0  0  0  0  0  0  0  0  0  0
    4.0491   -1.0729    1.5365 N   0  0  0  0  0  0  0  0  0  0  0  0
    1.2607   -0.1815    0.4588 N   0  0  0  0  0  0  0  0  0  0  0  0
    0.0615    0.3895    0.7009 N   0  0  0  0  0  0  0  0  0  0  0  0
    3.6472   -0.1977    0.6070 C   0  0  0  0  0  0  0  0  0  0  0  0
    2.3244    0.4165    0.9083 C   0  0  0  0  0  0  0  0  0  0  0  0
    4.3238    0.1510   -0.5303 C   0  0  0  0  0  0  0  0  0  0  0  0
   -3.5723    0.2269    0.2446 C   0  0  0  0  0  0  0  0  0  0  0  0
    5.5521   -0.4657   -0.7409 C   0  0  0  0  0  0  0  0  0  0  0  0
   -4.5651    1.0845    0.6897 C   0  0  0  0  0  0  0  0  0  0  0  0
   -3.8752   -0.9026   -0.4986 C   0  0  0  0  0  0  0  0  0  0  0  0
    2.3115    1.6978    1.7188 C   0  0  0  0  0  0  0  0  0  0  0  0
    6.0299   -1.3857    0.1859 C   0  0  0  0  0  0  0  0  0  0  0  0
   -5.2072   -1.1820   -0.8048 C   0  0  0  0  0  0  0  0  0  0  0  0
   -5.8971    0.8053    0.3834 C   0  0  0  0  0  0  0  0  0  0  0  0
   -1.0877   -0.2246    0.2013 C   0  0  0  0  0  0  0  0  0  0  0  0
   -6.2181   -0.3279   -0.3637 C   0  0  0  0  0  0  0  0  0  0  0  0
    5.2472   -1.6521    1.2979 C   0  0  0  0  0  0  0  0  0  0  0  0
    3.8238    1.1134   -1.5006 C   0  0  0  0  0  0  0  0  0  0  0  0
    6.1530   -0.2588   -1.6224 H   0  0  0  0  0  0  0  0  0  0  0  0
   -4.3264    1.9698    1.2724 H   0  0  0  0  0  0  0  0  0  0  0  0
   -3.1519   -1.6102   -0.8754 H   0  0  0  0  0  0  0  0  0  0  0  0
   -2.0642    1.3525    1.1028 H   0  0  0  0  0  0  0  0  0  0  0  0
    3.3292    1.9912    1.9921 H   0  0  0  0  0  0  0  0  0  0  0  0
    1.8669    2.5043    1.1290 H   0  0  0  0  0  0  0  0  0  0  0  0
    1.7379    1.5481    2.6378 H   0  0  0  0  0  0  0  0  0  0  0  0
    6.9832   -1.8810    0.0412 H   0  0  0  0  0  0  0  0  0  0  0  0
   -7.2549   -0.5454   -0.6021 H   0  0  0  0  0  0  0  0  0  0  0  0
    5.5744   -2.3626    2.0499 H   0  0  0  0  0  0  0  0  0  0  0  0
    0.0169    1.2523    1.2293 H   0  0  0  0  0  0  0  0  0  0  0  0
    4.4795    2.4235   -2.7896 H   0  0  0  0  0  0  0  0  0  0  0  0
  1 19  1  0  0  0  0
  2 20  1  0  0  0  0
  3 24  1  0  0  0  0
  3 36  1  0  0  0  0
  4 21  2  0  0  0  0
  5 24  2  0  0  0  0
  6 13  1  0  0  0  0
  6 21  1  0  0  0  0
  6 28  1  0  0  0  0
  7 10  1  0  0  0  0
  7 23  2  0  0  0  0
  8  9  1  0  0  0  0
  8 11  2  0  0  0  0
  9 21  1  0  0  0  0
  9 35  1  0  0  0  0
 10 11  1  0  0  0  0
 10 12  2  0  0  0  0
 11 17  1  0  0  0  0
 12 14  1  0  0  0  0
 12 24  1  0  0  0  0
 13 15  2  0  0  0  0
 13 16  1  0  0  0  0
 14 18  2  0  0  0  0
 14 25  1  0  0  0  0
 15 20  1  0  0  0  0
 15 26  1  0  0  0  0
 16 19  2  0  0  0  0
 16 27  1  0  0  0  0
 17 29  1  0  0  0  0
 17 30  1  0  0  0  0
 17 31  1  0  0  0  0
 18 23  1  0  0  0  0
 18 32  1  0  0  0  0
 19 22  1  0  0  0  0
 20 22  2  0  0  0  0
 22 33  1  0  0  0  0
 23 34  1  0  0  0  0
M  END
> <PUBCHEM_COMPOUND_CID>
6125184

> <PUBCHEM_CONFORMER_RMSD>
0.8

> <PUBCHEM_CONFORMER_DIVERSEORDER>
1
33
27
35
34
31
16
17
13
24
7
30
20
9
26
18
11
6
28
22
2
15
8
23
32
21
12
29
10
5
14
3
19
4
25

> <PUBCHEM_MMFF94_PARTIAL_CHARGES>
33
1 -0.19
10 0.4
11 0.3
12 0.09
13 0.12
14 -0.15
15 -0.15
16 -0.15
17 0.06
18 -0.15
19 0.19
2 -0.19
20 0.19
21 0.69
22 -0.15
23 0.16
24 0.63
25 0.15
26 0.15
27 0.15
28 0.37
3 -0.65
32 0.15
33 0.15
34 0.15
35 0.37
36 0.5
4 -0.57
5 -0.57
6 -0.55
7 -0.62
8 -0.51
9 -0.37

> <PUBCHEM_EFFECTIVE_ROTOR_COUNT>
6

> <PUBCHEM_PHARMACOPHORE_FEATURES>
10
1 3 acceptor
1 4 acceptor
1 5 acceptor
1 6 donor
1 7 acceptor
1 8 acceptor
1 9 donor
3 3 5 24 anion
6 13 15 16 19 20 22 rings
6 7 10 12 14 18 23 rings

> <PUBCHEM_HEAVY_ATOM_COUNT>
24

> <PUBCHEM_ATOM_DEF_STEREO_COUNT>
0

> <PUBCHEM_ATOM_UDEF_STEREO_COUNT>
0

> <PUBCHEM_BOND_DEF_STEREO_COUNT>
1

> <PUBCHEM_BOND_UDEF_STEREO_COUNT>
0

> <PUBCHEM_ISOTOPIC_ATOM_COUNT>
0

> <PUBCHEM_COMPONENT_COUNT>
1

> <PUBCHEM_CACTVS_TAUTO_COUNT>
7

> <PUBCHEM_CONFORMER_ID>
005D768000000001

> <PUBCHEM_MMFF94_ENERGY>
76.3321

> <PUBCHEM_FEATURE_SELFOVERLAP>
50.865

> <PUBCHEM_SHAPE_FINGERPRINT>
10299344 5 18335422352919769835
10638233 991 17968100832379914589
11524674 6 16272203098998779903
12166972 35 18335420166460071912
12236239 1 18408042918085067165
12516196 113 13334742319025027895
12616971 3 18259704493368171293
12730499 353 15647055950031251576
13533116 47 17385443189871851130
13782708 43 17131264796565734519
13955234 65 16443335460732497576
14170010 4 17603304861186438956
14294032 229 17983029855323387337
14848160 23 16056880230050101903
15081414 286 16588313825339008908
15183329 4 17989491809781273873
15348495 7 16271631391074590363
15419008 42 16701186249015390061
1577012 14 18335425681376934669
17844677 252 17846499274896709409
21033648 29 14707203344688288629
21623969 137 14979956986192472911
21859007 373 17274534309401241353
220451 1 18409448064192096827
22061861 79 16877940533881356067
221357 26 17022900130050184700
22224240 67 13542170681527466446
2303208 19 16559037116388670543
23081809 10 18408885157272471359
23522609 53 18266202606952138865
23559900 14 18336540633232700985
23569914 152 15798710360285059215
239999 70 16415480463313934654
29717793 49 18408328770102951070
300161 21 9439406830723543147
3004659 81 18411703171452223130
34797466 226 14490485157193612051
4340502 62 13326848937965722548
465052 167 16558750092978805910
542803 24 17822009805055681785
59755656 215 17632298921958566103
59755656 520 17967534567471357387
960060 61 18334860541137865632

> <PUBCHEM_SHAPE_MULTIPOLES>
441.83
18.85
1.72
1.55
14.89
0.14
-0.42
2.8
-1.74
0.23
-0.17
-2.17
-0.44
-2.9

> <PUBCHEM_SHAPE_SELFOVERLAP>
949.752

> <PUBCHEM_SHAPE_VOLUME>
242.6

> <PUBCHEM_COORDINATE_TYPE>
2
5
10

$$$$
