6215
  -OEChem-07192422293D

 62 66  0     1  0  0  0  0  0999 V2000
    1.4587    0.1166   -1.2067 F   0  0  0  0  0  0  0  0  0  0  0  0
    3.6554    2.6666    1.5294 F   0  0  0  0  0  0  0  0  0  0  0  0
   -2.9214    0.4613   -1.2022 O   0  0  0  0  0  0  0  0  0  0  0  0
   -3.4861    2.2801    0.1749 O   0  0  0  0  0  0  0  0  0  0  0  0
    0.7183   -2.8087    0.7439 O   0  0  0  0  0  0  0  0  0  0  0  0
   -4.9721   -0.6757    1.0659 O   0  0  0  0  0  0  0  0  0  0  0  0
   -5.3251   -2.6106   -0.8661 O   0  0  0  0  0  0  0  0  0  0  0  0
    6.2606    0.4455   -1.9804 O   0  0  0  0  0  0  0  0  0  0  0  0
   -1.5126   -0.6448    0.5083 C   0  0  1  0  0  0  0  0  0  0  0  0
   -0.6492    0.6328    0.6086 C   0  0  2  0  0  0  0  0  0  0  0  0
    0.7968    0.3557    1.0427 C   0  0  1  0  0  0  0  0  0  0  0  0
   -2.8780   -0.0076    0.1431 C   0  0  1  0  0  0  0  0  0  0  0  0
    1.4716   -0.5879   -0.0126 C   0  0  1  0  0  0  0  0  0  0  0  0
   -2.9569    1.2530    1.0084 C   0  0  1  0  0  0  0  0  0  0  0  0
   -1.5116    1.5850    1.4402 C   0  0  0  0  0  0  0  0  0  0  0  0
   -0.8796   -1.5420   -0.5716 C   0  0  0  0  0  0  0  0  0  0  0  0
    0.6109   -1.8555   -0.3020 C   0  0  2  0  0  0  0  0  0  0  0  0
    2.9970   -0.8420    0.3115 C   0  0  1  0  0  0  0  0  0  0  0  0
    1.5759    1.6733    1.1848 C   0  0  0  0  0  0  0  0  0  0  0  0
   -1.6415   -1.4082    1.8549 C   0  0  0  0  0  0  0  0  0  0  0  0
    3.0481    1.4442    1.4972 C   0  0  1  0  0  0  0  0  0  0  0  0
   -4.0465   -0.9363    0.2987 C   0  0  0  0  0  0  0  0  0  0  0  0
   -3.4814    1.7773   -1.1626 C   0  0  0  0  0  0  0  0  0  0  0  0
    3.6693    0.5295    0.4707 C   0  0  0  0  0  0  0  0  0  0  0  0
    3.2400   -1.6455    1.6100 C   0  0  0  0  0  0  0  0  0  0  0  0
    3.6430   -1.6461   -0.8077 C   0  0  0  0  0  0  0  0  0  0  0  0
   -4.0155   -2.1985   -0.5366 C   0  0  0  0  0  0  0  0  0  0  0  0
   -4.9154    1.7168   -1.6752 C   0  0  0  0  0  0  0  0  0  0  0  0
   -2.6450    2.7106   -2.0333 C   0  0  0  0  0  0  0  0  0  0  0  0
    4.7135    0.9339   -0.2698 C   0  0  0  0  0  0  0  0  0  0  0  0
    4.6811   -1.2457   -1.5480 C   0  0  0  0  0  0  0  0  0  0  0  0
    5.2977    0.0729   -1.3186 C   0  0  0  0  0  0  0  0  0  0  0  0
   -0.5810    1.0863   -0.3920 H   0  0  0  0  0  0  0  0  0  0  0  0
    0.7974   -0.1286    2.0239 H   0  0  0  0  0  0  0  0  0  0  0  0
   -3.5881    1.1695    1.8987 H   0  0  0  0  0  0  0  0  0  0  0  0
   -1.3797    1.3785    2.5083 H   0  0  0  0  0  0  0  0  0  0  0  0
   -1.2535    2.6332    1.2586 H   0  0  0  0  0  0  0  0  0  0  0  0
   -0.9504   -1.0576   -1.5532 H   0  0  0  0  0  0  0  0  0  0  0  0
   -1.4111   -2.4951   -0.6414 H   0  0  0  0  0  0  0  0  0  0  0  0
    0.9795   -2.3326   -1.2186 H   0  0  0  0  0  0  0  0  0  0  0  0
    1.1426    2.2895    1.9819 H   0  0  0  0  0  0  0  0  0  0  0  0
    1.4885    2.2709    0.2674 H   0  0  0  0  0  0  0  0  0  0  0  0
   -2.2334   -0.8557    2.5924 H   0  0  0  0  0  0  0  0  0  0  0  0
   -2.1294   -2.3782    1.7170 H   0  0  0  0  0  0  0  0  0  0  0  0
   -0.6786   -1.6085    2.3283 H   0  0  0  0  0  0  0  0  0  0  0  0
    3.1635    1.0165    2.4984 H   0  0  0  0  0  0  0  0  0  0  0  0
    2.6247   -1.2958    2.4441 H   0  0  0  0  0  0  0  0  0  0  0  0
    3.0475   -2.7160    1.4877 H   0  0  0  0  0  0  0  0  0  0  0  0
    4.2873   -1.5655    1.9313 H   0  0  0  0  0  0  0  0  0  0  0  0
    3.2458   -2.6388   -1.0078 H   0  0  0  0  0  0  0  0  0  0  0  0
    1.3055   -3.5196    0.4356 H   0  0  0  0  0  0  0  0  0  0  0  0
   -3.5381   -3.0012    0.0280 H   0  0  0  0  0  0  0  0  0  0  0  0
   -3.4838   -2.0364   -1.4767 H   0  0  0  0  0  0  0  0  0  0  0  0
   -4.9595    1.2917   -2.6834 H   0  0  0  0  0  0  0  0  0  0  0  0
   -5.5391    1.0881   -1.0316 H   0  0  0  0  0  0  0  0  0  0  0  0
   -5.3749    2.7111   -1.6843 H   0  0  0  0  0  0  0  0  0  0  0  0
   -1.6182    2.7739   -1.6577 H   0  0  0  0  0  0  0  0  0  0  0  0
   -2.5897    2.3481   -3.0650 H   0  0  0  0  0  0  0  0  0  0  0  0
   -3.0498    3.7281   -2.0290 H   0  0  0  0  0  0  0  0  0  0  0  0
    5.1629    1.9128   -0.1423 H   0  0  0  0  0  0  0  0  0  0  0  0
    5.0991   -1.8783   -2.3224 H   0  0  0  0  0  0  0  0  0  0  0  0
   -5.7132   -1.9250   -1.4364 H   0  0  0  0  0  0  0  0  0  0  0  0
  1 13  1  0  0  0  0
  2 21  1  0  0  0  0
  3 12  1  0  0  0  0
  3 23  1  0  0  0  0
  4 14  1  0  0  0  0
  4 23  1  0  0  0  0
  5 17  1  0  0  0  0
  5 51  1  0  0  0  0
  6 22  2  0  0  0  0
  7 27  1  0  0  0  0
  7 62  1  0  0  0  0
  8 32  2  0  0  0  0
  9 10  1  0  0  0  0
  9 12  1  0  0  0  0
  9 16  1  0  0  0  0
  9 20  1  0  0  0  0
 10 11  1  0  0  0  0
 10 15  1  0  0  0  0
 10 33  1  0  0  0  0
 11 13  1  0  0  0  0
 11 19  1  0  0  0  0
 11 34  1  0  0  0  0
 12 14  1  0  0  0  0
 12 22  1  0  0  0  0
 13 17  1  0  0  0  0
 13 18  1  0  0  0  0
 14 15  1  0  0  0  0
 14 35  1  0  0  0  0
 15 36  1  0  0  0  0
 15 37  1  0  0  0  0
 16 17  1  0  0  0  0
 16 38  1  0  0  0  0
 16 39  1  0  0  0  0
 17 40  1  0  0  0  0
 18 24  1  0  0  0  0
 18 25  1  0  0  0  0
 18 26  1  0  0  0  0
 19 21  1  0  0  0  0
 19 41  1  0  0  0  0
 19 42  1  0  0  0  0
 20 43  1  0  0  0  0
 20 44  1  0  0  0  0
 20 45  1  0  0  0  0
 21 24  1  0  0  0  0
 21 46  1  0  0  0  0
 22 27  1  0  0  0  0
 23 28  1  0  0  0  0
 23 29  1  0  0  0  0
 24 30  2  0  0  0  0
 25 47  1  0  0  0  0
 25 48  1  0  0  0  0
 25 49  1  0  0  0  0
 26 31  2  0  0  0  0
 26 50  1  0  0  0  0
 27 52  1  0  0  0  0
 27 53  1  0  0  0  0
 28 54  1  0  0  0  0
 28 55  1  0  0  0  0
 28 56  1  0  0  0  0
 29 57  1  0  0  0  0
 29 58  1  0  0  0  0
 29 59  1  0  0  0  0
 30 32  1  0  0  0  0
 30 60  1  0  0  0  0
 31 32  1  0  0  0  0
 31 61  1  0  0  0  0
M  END
> <PUBCHEM_COMPOUND_CID>
6215

> <PUBCHEM_CONFORMER_RMSD>
0.8

> <PUBCHEM_CONFORMER_DIVERSEORDER>
1
2

> <PUBCHEM_MMFF94_PARTIAL_CHARGES>
27
1 -0.34
12 0.34
13 0.34
14 0.28
17 0.28
18 0.28
2 -0.34
21 0.48
22 0.45
23 0.56
24 -0.28
26 -0.29
27 0.34
3 -0.56
30 -0.14
31 -0.14
32 0.54
4 -0.56
5 -0.68
50 0.15
51 0.4
6 -0.57
60 0.15
61 0.15
62 0.4
7 -0.68
8 -0.57

> <PUBCHEM_EFFECTIVE_ROTOR_COUNT>
3.6

> <PUBCHEM_PHARMACOPHORE_FEATURES>
14
1 3 acceptor
1 4 acceptor
1 5 acceptor
1 5 donor
1 6 acceptor
1 7 acceptor
1 7 donor
1 8 acceptor
3 23 28 29 hydrophobe
5 3 4 12 14 23 rings
5 9 10 12 14 15 rings
6 11 13 18 19 21 24 rings
6 18 24 26 30 31 32 rings
6 9 10 11 13 16 17 rings

> <PUBCHEM_HEAVY_ATOM_COUNT>
32

> <PUBCHEM_ATOM_DEF_STEREO_COUNT>
9

> <PUBCHEM_ATOM_UDEF_STEREO_COUNT>
0

> <PUBCHEM_BOND_DEF_STEREO_COUNT>
0

> <PUBCHEM_BOND_UDEF_STEREO_COUNT>
0

> <PUBCHEM_ISOTOPIC_ATOM_COUNT>
0

> <PUBCHEM_COMPONENT_COUNT>
1

> <PUBCHEM_CACTVS_TAUTO_COUNT>
3

> <PUBCHEM_CONFORMER_ID>
0000184700000001

> <PUBCHEM_MMFF94_ENERGY>
109.7387

> <PUBCHEM_FEATURE_SELFOVERLAP>
71.815

> <PUBCHEM_SHAPE_FINGERPRINT>
10366900 7 18260831552510294714
10498660 4 18333732386331189548
10670039 82 18040437698519097988
11497681 19 17486767751758531127
11595378 159 16081366306671949412
12236239 1 15430033287877729179
12403259 415 18411136948090352089
12596602 18 15357706274905414121
13224815 77 18343861108583137825
13583140 156 18337375059500241755
13782708 43 18409454687158741694
13944108 23 16533403849529143621
14790565 3 17408545947458648441
15082195 135 18113327626579330301
15163728 17 17532933796930220645
15961568 22 17898003775181135156
17349148 13 17603584157744415895
17980427 23 16805332084607512631
18186145 218 18342736299751066640
18608769 82 18264782132207037666
20775438 99 16698034107516801044
21033648 144 17775000249903479236
21033648 29 18409443704700187928
221357 26 18130791174042230938
22182313 1 18200299030659142185
22393880 68 18411976949272507014
23557571 272 18259984890229274561
23559900 14 18060418015165779032
350125 39 18411990156602871363
4280585 95 17265828217603909214
460360 51 18191004751770136598
46194498 28 18200317761618168324
469060 322 17968112931972362761
497634 4 17988373628157424507
508706 21 18260265269783310799
5252454 2 18044373829703205085
59755656 215 18342742918470100255
6086070 43 18335971005132784416
633830 44 17917707976753409000
7237137 82 18409451388475438183
9709674 26 18270682081488972154

> <PUBCHEM_SHAPE_MULTIPOLES>
608.78
11.61
2.8
1.84
3.72
0.04
0.17
-0.55
5.16
-1.99
0.17
0.55
-0.59
1.22

> <PUBCHEM_SHAPE_SELFOVERLAP>
1340.628

> <PUBCHEM_SHAPE_VOLUME>
330.1

> <PUBCHEM_COORDINATE_TYPE>
2
5
10

$$$$
