62274
  -OEChem-07202400283D

 28 30  0     0  0  0  0  0  0999 V2000
   -2.3495    0.0243    0.0001 N   0  0  0  0  0  0  0  0  0  0  0  0
   -1.0698   -1.7910    0.0001 N   0  0  0  0  0  0  0  0  0  0  0  0
    3.0538    0.9224    0.0003 N   0  0  0  0  0  0  0  0  0  0  0  0
   -3.4589   -2.0492    0.0002 N   0  0  0  0  0  0  0  0  0  0  0  0
   -1.0584    0.4850   -0.0001 C   0  0  0  0  0  0  0  0  0  0  0  0
   -0.2757   -0.6640   -0.0002 C   0  0  0  0  0  0  0  0  0  0  0  0
   -0.5226    1.7697   -0.0001 C   0  0  0  0  0  0  0  0  0  0  0  0
    1.1354   -0.5242   -0.0001 C   0  0  0  0  0  0  0  0  0  0  0  0
    1.7174    0.7637    0.0000 C   0  0  0  0  0  0  0  0  0  0  0  0
    0.8759    1.8741    0.0000 C   0  0  0  0  0  0  0  0  0  0  0  0
   -2.3044   -1.3416    0.0000 C   0  0  0  0  0  0  0  0  0  0  0  0
   -3.5466    0.8376    0.0000 C   0  0  0  0  0  0  0  0  0  0  0  0
   -1.3447    3.0151    0.0000 C   0  0  0  0  0  0  0  0  0  0  0  0
    1.9705   -1.6532   -0.0002 C   0  0  0  0  0  0  0  0  0  0  0  0
    3.3462   -1.4817    0.0000 C   0  0  0  0  0  0  0  0  0  0  0  0
    3.8314   -0.1872    0.0001 C   0  0  0  0  0  0  0  0  0  0  0  0
    1.3305    2.8653    0.0014 H   0  0  0  0  0  0  0  0  0  0  0  0
   -4.4444    0.2496    0.1837 H   0  0  0  0  0  0  0  0  0  0  0  0
   -3.4740    1.5694    0.8068 H   0  0  0  0  0  0  0  0  0  0  0  0
   -3.6301    1.3245   -0.9744 H   0  0  0  0  0  0  0  0  0  0  0  0
   -1.8694    3.1286    0.9530 H   0  0  0  0  0  0  0  0  0  0  0  0
   -0.7214    3.9069   -0.1317 H   0  0  0  0  0  0  0  0  0  0  0  0
   -2.0611    3.0138   -0.8260 H   0  0  0  0  0  0  0  0  0  0  0  0
    1.5584   -2.6587   -0.0003 H   0  0  0  0  0  0  0  0  0  0  0  0
    4.0173   -2.3327   -0.0001 H   0  0  0  0  0  0  0  0  0  0  0  0
   -3.4380   -3.0644    0.0068 H   0  0  0  0  0  0  0  0  0  0  0  0
   -4.3887   -1.6493   -0.0326 H   0  0  0  0  0  0  0  0  0  0  0  0
    4.8999    0.0034    0.0002 H   0  0  0  0  0  0  0  0  0  0  0  0
  1  5  1  0  0  0  0
  1 11  1  0  0  0  0
  1 12  1  0  0  0  0
  2  6  1  0  0  0  0
  2 11  2  0  0  0  0
  3  9  1  0  0  0  0
  3 16  2  0  0  0  0
  4 11  1  0  0  0  0
  4 26  1  0  0  0  0
  4 27  1  0  0  0  0
  5  6  2  0  0  0  0
  5  7  1  0  0  0  0
  6  8  1  0  0  0  0
  7 10  2  0  0  0  0
  7 13  1  0  0  0  0
  8  9  2  0  0  0  0
  8 14  1  0  0  0  0
  9 10  1  0  0  0  0
 10 17  1  0  0  0  0
 12 18  1  0  0  0  0
 12 19  1  0  0  0  0
 12 20  1  0  0  0  0
 13 21  1  0  0  0  0
 13 22  1  0  0  0  0
 13 23  1  0  0  0  0
 14 15  2  0  0  0  0
 14 24  1  0  0  0  0
 15 16  1  0  0  0  0
 15 25  1  0  0  0  0
 16 28  1  0  0  0  0
M  END
> <PUBCHEM_COMPOUND_CID>
62274

> <PUBCHEM_CONFORMER_RMSD>
0.4

> <PUBCHEM_CONFORMER_DIVERSEORDER>
1

> <PUBCHEM_MMFF94_PARTIAL_CHARGES>
21
1 0.05
10 -0.15
11 0.27
12 0.26
13 0.14
14 -0.15
15 -0.15
16 0.16
17 0.15
2 -0.57
24 0.15
25 0.15
26 0.4
27 0.4
28 0.15
3 -0.62
4 -0.88
5 -0.15
6 0.23
7 -0.14
9 0.31

> <PUBCHEM_EFFECTIVE_ROTOR_COUNT>
0

> <PUBCHEM_PHARMACOPHORE_FEATURES>
6
1 3 acceptor
1 4 donor
4 1 2 4 11 cation
5 1 2 5 6 11 rings
6 3 8 9 14 15 16 rings
6 5 6 7 8 9 10 rings

> <PUBCHEM_HEAVY_ATOM_COUNT>
16

> <PUBCHEM_ATOM_DEF_STEREO_COUNT>
0

> <PUBCHEM_ATOM_UDEF_STEREO_COUNT>
0

> <PUBCHEM_BOND_DEF_STEREO_COUNT>
0

> <PUBCHEM_BOND_UDEF_STEREO_COUNT>
0

> <PUBCHEM_ISOTOPIC_ATOM_COUNT>
0

> <PUBCHEM_COMPONENT_COUNT>
1

> <PUBCHEM_CACTVS_TAUTO_COUNT>
3

> <PUBCHEM_CONFORMER_ID>
0000F34200000001

> <PUBCHEM_MMFF94_ENERGY>
43.3678

> <PUBCHEM_FEATURE_SELFOVERLAP>
30.579

> <PUBCHEM_SHAPE_FINGERPRINT>
10608611 8 18340482283966559856
10618630 7 18409449202131368814
10967382 1 18338516309514432325
11132069 177 18412821369955047152
11578080 2 17273954991464247881
12032990 46 18410296955497891163
12382932 28 18413108372370031944
13140716 1 18410857676420983723
13221675 6 18410576158615990482
13380535 76 17981037514245636588
13583140 156 14117512095695221783
15196674 1 18410855477635234498
15375462 189 18186520990343187459
15442244 35 18121216481180954962
15536298 74 18343302600026807456
16945 1 18338798914157303556
193761 8 17689997838745746791
19591789 44 16683737883675440078
200 152 17988072405016383279
20510252 161 18128252281556405728
20645477 70 17687171402948244983
20871998 184 18202001001681431574
21029758 11 18340198700324170823
21267235 1 18410583906558079590
21501502 16 18410295830226684324
221490 88 17975134554581933211
22721475 48 18410577292513684876
2334 1 18266458891601825031
23402539 116 18341319003345308127
23463225 33 18410013260159926774
23559900 14 18269549439243155610
2748010 2 18339639074121529205
3091708 16 9063750999039164737
3312278 4 18409450292905297506
335352 9 18266740177584137844
34934 24 18410283709797300496
427121 178 15836815043956975777
5104073 3 18411418419009330186
528886 8 18411695482722135779
54173680 148 18410013208673066723
7364860 26 17980480383999430929
81228 2 18334861584435363992
8809292 202 18334298651740874610
9709674 26 18198905816578370694

> <PUBCHEM_SHAPE_MULTIPOLES>
309.35
5.73
2.64
0.6
1.29
0.84
0
-1.73
0
-1.39
0
0.02
0.02
0

> <PUBCHEM_SHAPE_SELFOVERLAP>
696.185

> <PUBCHEM_SHAPE_VOLUME>
163.9

> <PUBCHEM_COORDINATE_TYPE>
2
5
10

$$$$
