6327514
  -OEChem-07202400393D

 54 53  0     1  0  0  0  0  0999 V2000
    0.3409    2.6114   -0.3699 P   0  3  0  0  0  0  0  0  0  0  0  0
    1.3103    1.3136   -0.2841 O   0  0  0  0  0  0  0  0  0  0  0  0
   -0.9431    1.9886    0.4031 O   0  0  0  0  0  0  0  0  0  0  0  0
    0.9109    3.3595    0.7480 O   0  0  0  0  0  0  0  0  0  0  0  0
    2.9572   -0.2139   -1.2068 C   0  0  1  0  0  0  0  0  0  0  0  0
   -2.9637    0.6447    0.4932 C   0  0  1  0  0  0  0  0  0  0  0  0
    4.0422    0.0989   -0.1549 C   0  0  0  0  0  0  0  0  0  0  0  0
   -3.9943   -0.0653   -0.4099 C   0  0  0  0  0  0  0  0  0  0  0  0
    2.1066   -1.4632   -0.8856 C   0  0  0  0  0  0  0  0  0  0  0  0
   -2.4798   -0.2052    1.6895 C   0  0  0  0  0  0  0  0  0  0  0  0
    5.0515   -1.0371    0.0415 C   0  0  0  0  0  0  0  0  0  0  0  0
   -5.2694   -0.4863    0.3282 C   0  0  0  0  0  0  0  0  0  0  0  0
    2.0946    1.0381   -1.4365 C   0  0  0  0  0  0  0  0  0  0  0  0
   -1.7989    1.1578   -0.3693 C   0  0  0  0  0  0  0  0  0  0  0  0
    6.1133   -0.7235    1.0992 C   0  0  0  0  0  0  0  0  0  0  0  0
   -6.2776   -1.2047   -0.5727 C   0  0  0  0  0  0  0  0  0  0  0  0
    1.0286   -1.7928   -1.9091 C   0  0  0  0  0  0  0  0  0  0  0  0
   -1.7979   -1.5150    1.3188 C   0  0  0  0  0  0  0  0  0  0  0  0
    7.1032   -1.8574    1.3176 C   0  0  0  0  0  0  0  0  0  0  0  0
   -7.5347   -1.6483    0.1597 C   0  0  0  0  0  0  0  0  0  0  0  0
    3.4785   -0.4130   -2.1537 H   0  0  0  0  0  0  0  0  0  0  0  0
   -3.4527    1.5275    0.9290 H   0  0  0  0  0  0  0  0  0  0  0  0
    4.5878    1.0036   -0.4518 H   0  0  0  0  0  0  0  0  0  0  0  0
    3.5652    0.3200    0.8082 H   0  0  0  0  0  0  0  0  0  0  0  0
   -4.2797    0.6114   -1.2259 H   0  0  0  0  0  0  0  0  0  0  0  0
   -3.5378   -0.9414   -0.8857 H   0  0  0  0  0  0  0  0  0  0  0  0
    2.7610   -2.3392   -0.8199 H   0  0  0  0  0  0  0  0  0  0  0  0
    1.6395   -1.3498    0.1001 H   0  0  0  0  0  0  0  0  0  0  0  0
   -1.7794    0.3883    2.2904 H   0  0  0  0  0  0  0  0  0  0  0  0
   -3.3223   -0.4208    2.3560 H   0  0  0  0  0  0  0  0  0  0  0  0
    5.5432   -1.2559   -0.9141 H   0  0  0  0  0  0  0  0  0  0  0  0
    4.5324   -1.9499    0.3521 H   0  0  0  0  0  0  0  0  0  0  0  0
   -5.7426    0.3990    0.7700 H   0  0  0  0  0  0  0  0  0  0  0  0
   -5.0180   -1.1606    1.1538 H   0  0  0  0  0  0  0  0  0  0  0  0
    1.4471    0.8892   -2.3101 H   0  0  0  0  0  0  0  0  0  0  0  0
    2.7488    1.8929   -1.6580 H   0  0  0  0  0  0  0  0  0  0  0  0
   -2.2069    1.7454   -1.2033 H   0  0  0  0  0  0  0  0  0  0  0  0
   -1.2440    0.3143   -0.7944 H   0  0  0  0  0  0  0  0  0  0  0  0
    5.6211   -0.4963    2.0524 H   0  0  0  0  0  0  0  0  0  0  0  0
    6.6650    0.1768    0.8035 H   0  0  0  0  0  0  0  0  0  0  0  0
   -5.8016   -2.0847   -1.0215 H   0  0  0  0  0  0  0  0  0  0  0  0
   -6.5633   -0.5419   -1.3982 H   0  0  0  0  0  0  0  0  0  0  0  0
    0.5445   -2.7404   -1.6513 H   0  0  0  0  0  0  0  0  0  0  0  0
    0.2513   -1.0265   -1.9434 H   0  0  0  0  0  0  0  0  0  0  0  0
    1.4597   -1.8942   -2.9101 H   0  0  0  0  0  0  0  0  0  0  0  0
   -1.4874   -2.0408    2.2278 H   0  0  0  0  0  0  0  0  0  0  0  0
   -2.4707   -2.1790    0.7690 H   0  0  0  0  0  0  0  0  0  0  0  0
   -0.9021   -1.3476    0.7154 H   0  0  0  0  0  0  0  0  0  0  0  0
    6.5902   -2.7641    1.6532 H   0  0  0  0  0  0  0  0  0  0  0  0
    7.6408   -2.0891    0.3927 H   0  0  0  0  0  0  0  0  0  0  0  0
    7.8382   -1.5793    2.0793 H   0  0  0  0  0  0  0  0  0  0  0  0
   -7.2902   -2.3446    0.9681 H   0  0  0  0  0  0  0  0  0  0  0  0
   -8.0574   -0.7894    0.5922 H   0  0  0  0  0  0  0  0  0  0  0  0
   -8.2188   -2.1525   -0.5299 H   0  0  0  0  0  0  0  0  0  0  0  0
  1  2  1  0  0  0  0
  1  3  1  0  0  0  0
  1  4  2  0  0  0  0
  2 13  1  0  0  0  0
  3 14  1  0  0  0  0
  5  7  1  0  0  0  0
  5  9  1  0  0  0  0
  5 13  1  0  0  0  0
  5 21  1  0  0  0  0
  6  8  1  0  0  0  0
  6 10  1  0  0  0  0
  6 14  1  0  0  0  0
  6 22  1  0  0  0  0
  7 11  1  0  0  0  0
  7 23  1  0  0  0  0
  7 24  1  0  0  0  0
  8 12  1  0  0  0  0
  8 25  1  0  0  0  0
  8 26  1  0  0  0  0
  9 17  1  0  0  0  0
  9 27  1  0  0  0  0
  9 28  1  0  0  0  0
 10 18  1  0  0  0  0
 10 29  1  0  0  0  0
 10 30  1  0  0  0  0
 11 15  1  0  0  0  0
 11 31  1  0  0  0  0
 11 32  1  0  0  0  0
 12 16  1  0  0  0  0
 12 33  1  0  0  0  0
 12 34  1  0  0  0  0
 13 35  1  0  0  0  0
 13 36  1  0  0  0  0
 14 37  1  0  0  0  0
 14 38  1  0  0  0  0
 15 19  1  0  0  0  0
 15 39  1  0  0  0  0
 15 40  1  0  0  0  0
 16 20  1  0  0  0  0
 16 41  1  0  0  0  0
 16 42  1  0  0  0  0
 17 43  1  0  0  0  0
 17 44  1  0  0  0  0
 17 45  1  0  0  0  0
 18 46  1  0  0  0  0
 18 47  1  0  0  0  0
 18 48  1  0  0  0  0
 19 49  1  0  0  0  0
 19 50  1  0  0  0  0
 19 51  1  0  0  0  0
 20 52  1  0  0  0  0
 20 53  1  0  0  0  0
 20 54  1  0  0  0  0
M  CHG  1   1   1
M  END
> <PUBCHEM_COMPOUND_CID>
6327514

> <PUBCHEM_CONFORMER_RMSD>
1.4

> <PUBCHEM_CONFORMER_DIVERSEORDER>
2
30
15
35
39
42
36
44
26
48
25
19
10
43
40
27
49
52
53
31
12
55
32
51
38
47
41
7
33
37
21
23
24
3
20
4
50
34
18
16
13
17
9
56
46
54
29
8
28
22
45
6
11
14
1
5

> <PUBCHEM_EFFECTIVE_ROTOR_COUNT>
14

> <PUBCHEM_PHARMACOPHORE_FEATURES>
7
1 17 hydrophobe
1 18 hydrophobe
1 19 hydrophobe
1 20 hydrophobe
1 4 acceptor
5 5 7 9 11 15 hydrophobe
5 6 8 10 12 16 hydrophobe

> <PUBCHEM_HEAVY_ATOM_COUNT>
20

> <PUBCHEM_ATOM_DEF_STEREO_COUNT>
0

> <PUBCHEM_ATOM_UDEF_STEREO_COUNT>
2

> <PUBCHEM_BOND_DEF_STEREO_COUNT>
0

> <PUBCHEM_BOND_UDEF_STEREO_COUNT>
0

> <PUBCHEM_ISOTOPIC_ATOM_COUNT>
0

> <PUBCHEM_COMPONENT_COUNT>
1

> <PUBCHEM_CACTVS_TAUTO_COUNT>
1

> <PUBCHEM_CONFORMER_ID>
00608CDA00000002

> <PUBCHEM_MMFF94_ENERGY>
14.6161

> <PUBCHEM_FEATURE_SELFOVERLAP>
35.529

> <PUBCHEM_SHAPE_FINGERPRINT>
10670039 82 15792000161653794327
10674148 151 12324237253124695206
10753850 27 18334294271016384545
12166972 35 17822012016663120134
12553582 1 18125190244699477813
12555020 224 17749110010949461051
12596602 18 15913337862031818267
12633257 1 18265074524821211899
12838863 1 18335413565058648786
12892183 10 16343434885961816517
13533116 47 18200597033229586265
14178342 30 17980209591334665092
14341114 328 14836399211846845598
15183329 4 15213294201446301259
15188451 53 18040990705918510898
17834072 8 13984662550944118255
20645477 70 18340210812211489253
21304304 249 18408603656494912622
21315764 119 15863787296921289275
21344244 78 16988569034629749705
22079108 93 16487248868645660142
23402539 116 18335699390989528876
23559900 14 17749956699280014837
2637199 183 8790879662329682588
3004659 81 17385439925612323016
5718773 13 18334290963649291906
58260988 393 15769505252401606739
59682541 35 18201711873911776114
59682541 52 14779259800559961170
6138700 20 18114178619041977995
6438161 24 18334852857779087219

> <PUBCHEM_SHAPE_MULTIPOLES>
397.83
16.76
2.69
1.5
4.8
2.02
0.12
-14.5
-4.29
-0.73
-0.25
-0.95
-0.52
-0.81

> <PUBCHEM_SHAPE_SELFOVERLAP>
718.235

> <PUBCHEM_SHAPE_VOLUME>
256.5

> <PUBCHEM_COORDINATE_TYPE>
2
5
10

$$$$
