638144
  -OEChem-07202400353D

 24 23  0     0  0  0  0  0  0999 V2000
    2.8882    0.3413    0.0000 O   0  0  0  0  0  0  0  0  0  0  0  0
   -2.8884   -0.3414    0.0003 O   0  0  0  0  0  0  0  0  0  0  0  0
    1.8698   -1.7326   -0.0026 O   0  0  0  0  0  0  0  0  0  0  0  0
   -1.8693    1.7320   -0.0026 O   0  0  0  0  0  0  0  0  0  0  0  0
    4.1782   -0.2791    0.0024 C   0  0  0  0  0  0  0  0  0  0  0  0
   -4.1780    0.2798    0.0022 C   0  0  0  0  0  0  0  0  0  0  0  0
    5.2429    0.7971    0.0048 C   0  0  0  0  0  0  0  0  0  0  0  0
   -5.2434   -0.7957    0.0046 C   0  0  0  0  0  0  0  0  0  0  0  0
    0.5954    0.3045   -0.0025 C   0  0  0  0  0  0  0  0  0  0  0  0
   -0.5955   -0.3054   -0.0022 C   0  0  0  0  0  0  0  0  0  0  0  0
    1.8291   -0.5123   -0.0024 C   0  0  0  0  0  0  0  0  0  0  0  0
   -1.8289    0.5118   -0.0019 C   0  0  0  0  0  0  0  0  0  0  0  0
    4.2812   -0.9039    0.8966 H   0  0  0  0  0  0  0  0  0  0  0  0
    4.2847   -0.9035   -0.8918 H   0  0  0  0  0  0  0  0  0  0  0  0
   -4.2809    0.9050    0.8961 H   0  0  0  0  0  0  0  0  0  0  0  0
   -4.2839    0.9039   -0.8922 H   0  0  0  0  0  0  0  0  0  0  0  0
    6.2439    0.3569    0.0066 H   0  0  0  0  0  0  0  0  0  0  0  0
    5.1415    1.4414   -0.8747 H   0  0  0  0  0  0  0  0  0  0  0  0
    5.1380    1.4409    0.8843 H   0  0  0  0  0  0  0  0  0  0  0  0
   -6.2441   -0.3549    0.0061 H   0  0  0  0  0  0  0  0  0  0  0  0
   -5.1421   -1.4403   -0.8747 H   0  0  0  0  0  0  0  0  0  0  0  0
   -5.1391   -1.4394    0.8842 H   0  0  0  0  0  0  0  0  0  0  0  0
    0.6955    1.3847   -0.0027 H   0  0  0  0  0  0  0  0  0  0  0  0
   -0.6957   -1.3856   -0.0020 H   0  0  0  0  0  0  0  0  0  0  0  0
  1  5  1  0  0  0  0
  1 11  1  0  0  0  0
  2  6  1  0  0  0  0
  2 12  1  0  0  0  0
  3 11  2  0  0  0  0
  4 12  2  0  0  0  0
  5  7  1  0  0  0  0
  5 13  1  0  0  0  0
  5 14  1  0  0  0  0
  6  8  1  0  0  0  0
  6 15  1  0  0  0  0
  6 16  1  0  0  0  0
  7 17  1  0  0  0  0
  7 18  1  0  0  0  0
  7 19  1  0  0  0  0
  8 20  1  0  0  0  0
  8 21  1  0  0  0  0
  8 22  1  0  0  0  0
  9 10  2  0  0  0  0
  9 11  1  0  0  0  0
  9 23  1  0  0  0  0
 10 12  1  0  0  0  0
 10 24  1  0  0  0  0
M  END
> <PUBCHEM_COMPOUND_CID>
638144

> <PUBCHEM_CONFORMER_RMSD>
0.6

> <PUBCHEM_CONFORMER_DIVERSEORDER>
1
20
21
88
85
62
43
35
61
29
75
79
73
64
12
54
94
90
83
14
16
81
24
19
72
80
13
10
44
42
23
93
25
96
86
71
41
67
32
30
82
84
38
26
60
65
31
95
53
2
11
92
17
49
59
45
36
56
68
52
58
5
77
70
63
7
78
69
50
3
33
15
89
40
57
28
48
37
76
74
4
9
55
22
27
87
18
8
46
47
6
91
39
34
51
66

> <PUBCHEM_MMFF94_PARTIAL_CHARGES>
12
1 -0.43
10 -0.14
11 0.71
12 0.71
2 -0.43
23 0.15
24 0.15
3 -0.57
4 -0.57
5 0.28
6 0.28
9 -0.14

> <PUBCHEM_EFFECTIVE_ROTOR_COUNT>
6

> <PUBCHEM_PHARMACOPHORE_FEATURES>
2
1 3 acceptor
1 4 acceptor

> <PUBCHEM_HEAVY_ATOM_COUNT>
12

> <PUBCHEM_ATOM_DEF_STEREO_COUNT>
0

> <PUBCHEM_ATOM_UDEF_STEREO_COUNT>
0

> <PUBCHEM_BOND_DEF_STEREO_COUNT>
1

> <PUBCHEM_BOND_UDEF_STEREO_COUNT>
0

> <PUBCHEM_ISOTOPIC_ATOM_COUNT>
0

> <PUBCHEM_COMPONENT_COUNT>
1

> <PUBCHEM_CACTVS_TAUTO_COUNT>
1

> <PUBCHEM_CONFORMER_ID>
0009BCC000000001

> <PUBCHEM_MMFF94_ENERGY>
14.3759

> <PUBCHEM_FEATURE_SELFOVERLAP>
10.149

> <PUBCHEM_SHAPE_FINGERPRINT>
11062470 55 15068341211269321397
11401426 45 13912322399739879395
114248 4 18410575093253013529
124424 183 11314031266168901087
12815109 37 18334575750525335343
12932764 1 17059193887316246542
13081056 2 18343301470693384960
14123238 8 18410575093253013520
1420 363 18409174319787240619
14252887 29 17775014474344494927
14325111 11 18338516322394046471
17834072 33 17989203789031739405
17834076 25 18335139803842337487
187816 3 17385442133489250793
200 152 18411697690752044137
20279233 1 16950572064393650667
20645477 70 18338796693628193302
20719005 15 18410573985383592194
20767249 213 18114463452846631228
22485316 2 18410853240300177671
23402539 116 17894624872705337175
23402655 69 18341608175193673853
23557571 272 18271533004625754900
42788 4 18410856568467159460
449060 50 18410012134904856126
474229 33 18409449214963958418
58051976 378 18411703187935922766
59345606 91 18408601461544623517

> <PUBCHEM_SHAPE_MULTIPOLES>
223.48
11.1
1.19
0.58
0
0
0
0
0.03
0
0
0
0
0

> <PUBCHEM_SHAPE_SELFOVERLAP>
424.107

> <PUBCHEM_SHAPE_VOLUME>
137.7

> <PUBCHEM_COORDINATE_TYPE>
2
5
10

$$$$
