6433563
  -OEChem-07202400393D

 93 96  0     1  0  0  0  0  0999 V2000
   -2.3951    2.9932   -0.8443 O   0  0  0  0  0  0  0  0  0  0  0  0
   -5.8577   -0.5332    1.1240 O   0  0  0  0  0  0  0  0  0  0  0  0
   -1.3834   -3.0066    1.9088 O   0  0  0  0  0  0  0  0  0  0  0  0
    1.3164   -2.5627   -3.2737 O   0  0  0  0  0  0  0  0  0  0  0  0
    2.0183    1.0108   -1.0145 O   0  0  0  0  0  0  0  0  0  0  0  0
   -1.3697   -4.1660   -0.4364 O   0  0  0  0  0  0  0  0  0  0  0  0
   -1.7679    2.5533   -3.0237 O   0  0  0  0  0  0  0  0  0  0  0  0
   -7.1123    1.2475    0.3545 O   0  0  0  0  0  0  0  0  0  0  0  0
    3.9287    0.0180   -1.8409 O   0  0  0  0  0  0  0  0  0  0  0  0
    5.2327    2.3701   -1.1846 O   0  0  0  0  0  0  0  0  0  0  0  0
    3.2924    1.3768    1.8235 N   0  0  0  0  0  0  0  0  0  0  0  0
   -2.1131    0.1616    1.7533 C   0  0  0  0  0  0  0  0  0  0  0  0
   -2.7031    1.3891    0.9659 C   0  0  2  0  0  0  0  0  0  0  0  0
   -0.6732   -2.3093   -1.8343 C   0  0  1  0  0  0  0  0  0  0  0  0
   -2.4156   -1.1160    0.9337 C   0  0  0  0  0  0  0  0  0  0  0  0
   -4.2402    1.2411    0.9419 C   0  0  0  0  0  0  0  0  0  0  0  0
   -2.2138    1.6073   -0.5101 C   0  0  2  0  0  0  0  0  0  0  0  0
   -4.6927   -0.1284    0.4034 C   0  0  1  0  0  0  0  0  0  0  0  0
   -1.1135   -0.8469   -2.1098 C   0  0  0  0  0  0  0  0  0  0  0  0
   -1.2852   -2.1181    0.7990 C   0  0  2  0  0  0  0  0  0  0  0  0
    0.8733   -2.4760   -1.9155 C   0  0  2  0  0  0  0  0  0  0  0  0
   -3.6665   -1.2615    0.4145 C   0  0  0  0  0  0  0  0  0  0  0  0
   -0.2715    0.2381   -1.4679 C   0  0  0  0  0  0  0  0  0  0  0  0
   -1.1716   -2.9438   -0.4945 C   0  0  0  0  0  0  0  0  0  0  0  0
    1.2183    0.0408   -1.6879 C   0  0  2  0  0  0  0  0  0  0  0  0
    1.6616   -1.3537   -1.2367 C   0  0  0  0  0  0  0  0  0  0  0  0
   -0.6359    0.4315    2.1514 C   0  0  0  0  0  0  0  0  0  0  0  0
   -2.8086   -0.0095    3.1434 C   0  0  0  0  0  0  0  0  0  0  0  0
   -0.7738    1.2976   -0.7971 C   0  0  0  0  0  0  0  0  0  0  0  0
   -1.3397   -3.1711   -2.9506 C   0  0  0  0  0  0  0  0  0  0  0  0
   -4.1781   -2.5205   -0.2399 C   0  0  0  0  0  0  0  0  0  0  0  0
   -2.1337    3.3169   -2.1404 C   0  0  0  0  0  0  0  0  0  0  0  0
   -6.8587    0.3917    1.1915 C   0  0  0  0  0  0  0  0  0  0  0  0
    3.3703    0.8819   -1.1773 C   0  0  0  0  0  0  0  0  0  0  0  0
    4.0900    1.9922   -0.4298 C   0  0  1  0  0  0  0  0  0  0  0  0
   -2.3643    4.7840   -2.3416 C   0  0  0  0  0  0  0  0  0  0  0  0
   -7.6265    0.2106    2.4657 C   0  0  0  0  0  0  0  0  0  0  0  0
    4.4948    1.5763    1.0017 C   0  0  2  0  0  0  0  0  0  0  0  0
    5.4249    0.3730    1.0552 C   0  0  0  0  0  0  0  0  0  0  0  0
    3.6679    1.1022    3.2072 C   0  0  0  0  0  0  0  0  0  0  0  0
    2.4285    2.5509    1.7451 C   0  0  0  0  0  0  0  0  0  0  0  0
    4.8768   -0.8909    1.1356 C   0  0  0  0  0  0  0  0  0  0  0  0
    6.7886    0.5817    1.0222 C   0  0  0  0  0  0  0  0  0  0  0  0
    5.7292   -1.9940    1.1852 C   0  0  0  0  0  0  0  0  0  0  0  0
    7.6411   -0.5212    1.0717 C   0  0  0  0  0  0  0  0  0  0  0  0
    7.1113   -1.8090    1.1532 C   0  0  0  0  0  0  0  0  0  0  0  0
   -2.4823    2.3063    1.5307 H   0  0  0  0  0  0  0  0  0  0  0  0
   -4.6699    2.0403    0.3232 H   0  0  0  0  0  0  0  0  0  0  0  0
   -4.6322    1.4335    1.9484 H   0  0  0  0  0  0  0  0  0  0  0  0
   -2.8663    1.0497   -1.1877 H   0  0  0  0  0  0  0  0  0  0  0  0
   -4.9834    0.0050   -0.6489 H   0  0  0  0  0  0  0  0  0  0  0  0
   -1.0478   -0.6570   -3.1913 H   0  0  0  0  0  0  0  0  0  0  0  0
   -2.1737   -0.7472   -1.8753 H   0  0  0  0  0  0  0  0  0  0  0  0
   -0.3163   -1.6331    0.8908 H   0  0  0  0  0  0  0  0  0  0  0  0
    1.1689   -3.4200   -1.4387 H   0  0  0  0  0  0  0  0  0  0  0  0
    1.4011    0.1565   -2.7652 H   0  0  0  0  0  0  0  0  0  0  0  0
    1.5541   -1.4263   -0.1480 H   0  0  0  0  0  0  0  0  0  0  0  0
    2.7071   -1.5911   -1.4227 H   0  0  0  0  0  0  0  0  0  0  0  0
   -0.5469    1.4017    2.6539 H   0  0  0  0  0  0  0  0  0  0  0  0
   -0.2673   -0.3247    2.8561 H   0  0  0  0  0  0  0  0  0  0  0  0
    0.0685    0.4313    1.3231 H   0  0  0  0  0  0  0  0  0  0  0  0
   -2.7696    0.9250    3.7156 H   0  0  0  0  0  0  0  0  0  0  0  0
   -3.8576   -0.3139    3.0791 H   0  0  0  0  0  0  0  0  0  0  0  0
   -2.3109   -0.7842    3.7403 H   0  0  0  0  0  0  0  0  0  0  0  0
   -0.0786    2.0304   -0.3921 H   0  0  0  0  0  0  0  0  0  0  0  0
   -0.9988   -4.2126   -2.9161 H   0  0  0  0  0  0  0  0  0  0  0  0
   -2.4297   -3.1816   -2.8407 H   0  0  0  0  0  0  0  0  0  0  0  0
   -1.1205   -2.7879   -3.9536 H   0  0  0  0  0  0  0  0  0  0  0  0
   -3.6741   -3.4173    0.1238 H   0  0  0  0  0  0  0  0  0  0  0  0
   -4.0819   -2.4531   -1.3265 H   0  0  0  0  0  0  0  0  0  0  0  0
   -5.2375   -2.6788   -0.0111 H   0  0  0  0  0  0  0  0  0  0  0  0
   -0.5578   -3.5195    1.9472 H   0  0  0  0  0  0  0  0  0  0  0  0
    1.1188   -3.4589   -3.5940 H   0  0  0  0  0  0  0  0  0  0  0  0
    3.4703    2.8928   -0.4499 H   0  0  0  0  0  0  0  0  0  0  0  0
   -1.6914    5.3566   -1.6983 H   0  0  0  0  0  0  0  0  0  0  0  0
   -2.1553    5.0441   -3.3832 H   0  0  0  0  0  0  0  0  0  0  0  0
   -3.4070    5.0289   -2.1243 H   0  0  0  0  0  0  0  0  0  0  0  0
   -6.9606    0.3467    3.3216 H   0  0  0  0  0  0  0  0  0  0  0  0
   -8.0820   -0.7825    2.4859 H   0  0  0  0  0  0  0  0  0  0  0  0
   -8.4208    0.9605    2.5202 H   0  0  0  0  0  0  0  0  0  0  0  0
    5.0606    2.4228    1.4228 H   0  0  0  0  0  0  0  0  0  0  0  0
    4.9225    2.7196   -2.0376 H   0  0  0  0  0  0  0  0  0  0  0  0
    2.7660    0.9949    3.8228 H   0  0  0  0  0  0  0  0  0  0  0  0
    4.2627    1.9157    3.6405 H   0  0  0  0  0  0  0  0  0  0  0  0
    4.2134    0.1671    3.3547 H   0  0  0  0  0  0  0  0  0  0  0  0
    1.6448    2.4941    2.5105 H   0  0  0  0  0  0  0  0  0  0  0  0
    1.8770    2.6315    0.8080 H   0  0  0  0  0  0  0  0  0  0  0  0
    2.9733    3.4857    1.9247 H   0  0  0  0  0  0  0  0  0  0  0  0
    3.8060   -1.0687    1.1432 H   0  0  0  0  0  0  0  0  0  0  0  0
    7.2110    1.5798    0.9579 H   0  0  0  0  0  0  0  0  0  0  0  0
    5.3167   -2.9970    1.2437 H   0  0  0  0  0  0  0  0  0  0  0  0
    8.7173   -0.3774    1.0463 H   0  0  0  0  0  0  0  0  0  0  0  0
    7.7751   -2.6679    1.1903 H   0  0  0  0  0  0  0  0  0  0  0  0
  1 17  1  0  0  0  0
  1 32  1  0  0  0  0
  2 18  1  0  0  0  0
  2 33  1  0  0  0  0
  3 20  1  0  0  0  0
  3 72  1  0  0  0  0
  4 21  1  0  0  0  0
  4 73  1  0  0  0  0
  5 25  1  0  0  0  0
  5 34  1  0  0  0  0
  6 24  2  0  0  0  0
  7 32  2  0  0  0  0
  8 33  2  0  0  0  0
  9 34  2  0  0  0  0
 10 35  1  0  0  0  0
 10 82  1  0  0  0  0
 11 38  1  0  0  0  0
 11 40  1  0  0  0  0
 11 41  1  0  0  0  0
 12 13  1  0  0  0  0
 12 15  1  0  0  0  0
 12 27  1  0  0  0  0
 12 28  1  0  0  0  0
 13 16  1  0  0  0  0
 13 17  1  0  0  0  0
 13 47  1  0  0  0  0
 14 19  1  0  0  0  0
 14 21  1  0  0  0  0
 14 24  1  0  0  0  0
 14 30  1  0  0  0  0
 15 20  1  0  0  0  0
 15 22  2  0  0  0  0
 16 18  1  0  0  0  0
 16 48  1  0  0  0  0
 16 49  1  0  0  0  0
 17 29  1  0  0  0  0
 17 50  1  0  0  0  0
 18 22  1  0  0  0  0
 18 51  1  0  0  0  0
 19 23  1  0  0  0  0
 19 52  1  0  0  0  0
 19 53  1  0  0  0  0
 20 24  1  0  0  0  0
 20 54  1  0  0  0  0
 21 26  1  0  0  0  0
 21 55  1  0  0  0  0
 22 31  1  0  0  0  0
 23 25  1  0  0  0  0
 23 29  2  0  0  0  0
 25 26  1  0  0  0  0
 25 56  1  0  0  0  0
 26 57  1  0  0  0  0
 26 58  1  0  0  0  0
 27 59  1  0  0  0  0
 27 60  1  0  0  0  0
 27 61  1  0  0  0  0
 28 62  1  0  0  0  0
 28 63  1  0  0  0  0
 28 64  1  0  0  0  0
 29 65  1  0  0  0  0
 30 66  1  0  0  0  0
 30 67  1  0  0  0  0
 30 68  1  0  0  0  0
 31 69  1  0  0  0  0
 31 70  1  0  0  0  0
 31 71  1  0  0  0  0
 32 36  1  0  0  0  0
 33 37  1  0  0  0  0
 34 35  1  0  0  0  0
 35 38  1  0  0  0  0
 35 74  1  0  0  0  0
 36 75  1  0  0  0  0
 36 76  1  0  0  0  0
 36 77  1  0  0  0  0
 37 78  1  0  0  0  0
 37 79  1  0  0  0  0
 37 80  1  0  0  0  0
 38 39  1  0  0  0  0
 38 81  1  0  0  0  0
 39 42  2  0  0  0  0
 39 43  1  0  0  0  0
 40 83  1  0  0  0  0
 40 84  1  0  0  0  0
 40 85  1  0  0  0  0
 41 86  1  0  0  0  0
 41 87  1  0  0  0  0
 41 88  1  0  0  0  0
 42 44  1  0  0  0  0
 42 89  1  0  0  0  0
 43 45  2  0  0  0  0
 43 90  1  0  0  0  0
 44 46  2  0  0  0  0
 44 91  1  0  0  0  0
 45 46  1  0  0  0  0
 45 92  1  0  0  0  0
 46 93  1  0  0  0  0
M  END
> <PUBCHEM_COMPOUND_CID>
6433563

> <PUBCHEM_CONFORMER_RMSD>
1.2

> <PUBCHEM_CONFORMER_DIVERSEORDER>
11
31
8
9
22
34
12
28
29
15
32
26
7
23
14
27
6
30
4
21
25
18
2
24
13
33
16
1
17
20
5
19
10
3

> <PUBCHEM_MMFF94_PARTIAL_CHARGES>
49
1 -0.43
10 -0.68
11 -0.81
12 0.14
14 0.06
15 -0.28
17 0.42
18 0.42
19 0.14
2 -0.43
20 0.48
21 0.28
22 -0.28
23 -0.28
24 0.45
25 0.42
29 -0.29
3 -0.68
31 0.14
32 0.66
33 0.66
34 0.66
35 0.34
36 0.06
37 0.06
38 0.41
39 -0.14
4 -0.68
40 0.27
41 0.27
42 -0.15
43 -0.15
44 -0.15
45 -0.15
46 -0.15
5 -0.43
6 -0.57
65 0.15
7 -0.57
72 0.4
73 0.4
8 -0.57
82 0.4
89 0.15
9 -0.57
90 0.15
91 0.15
92 0.15
93 0.15

> <PUBCHEM_EFFECTIVE_ROTOR_COUNT>
11.8

> <PUBCHEM_PHARMACOPHORE_FEATURES>
15
1 10 acceptor
1 10 donor
1 11 cation
1 3 acceptor
1 3 donor
1 4 acceptor
1 4 donor
1 6 acceptor
1 7 acceptor
1 8 acceptor
1 9 acceptor
3 12 27 28 hydrophobe
6 12 13 15 16 18 22 rings
6 14 19 21 23 25 26 rings
6 39 42 43 44 45 46 rings

> <PUBCHEM_HEAVY_ATOM_COUNT>
46

> <PUBCHEM_ATOM_DEF_STEREO_COUNT>
8

> <PUBCHEM_ATOM_UDEF_STEREO_COUNT>
1

> <PUBCHEM_BOND_DEF_STEREO_COUNT>
1

> <PUBCHEM_BOND_UDEF_STEREO_COUNT>
0

> <PUBCHEM_ISOTOPIC_ATOM_COUNT>
0

> <PUBCHEM_COMPONENT_COUNT>
1

> <PUBCHEM_CACTVS_TAUTO_COUNT>
1

> <PUBCHEM_CONFORMER_ID>
00622B1B0000000B

> <PUBCHEM_MMFF94_ENERGY>
160.2845

> <PUBCHEM_FEATURE_SELFOVERLAP>
76.141

> <PUBCHEM_SHAPE_FINGERPRINT>
10010297 198 17825116054528020732
10076449 9 13045945698289491427
11578080 2 18055068753979942521
12107698 1 17968095300852225880
12128747 34 17895752877394139898
12156800 1 17406774883581680895
12422481 6 18411417336803982851
12788726 201 17604160271905033885
13811026 1 18202566198509786607
14068700 675 15936415537251186357
14395042 70 17402307297060733165
14705955 166 18041838394254154616
15444296 9 18411702046081277013
16994733 274 15338569241239053435
20764821 26 16772662411834028912
21033648 29 17987810742312072947
3383291 50 17240768388847625523
392239 28 17346325963411707515
460360 51 18342168952468708790
469060 322 17977929512912373622
513202 73 18113609071781250652
5171179 24 17976828584104301759

> <PUBCHEM_SHAPE_MULTIPOLES>
882.98
15.76
4.19
3.27
9.15
0.1
0.6
-2.14
-11.85
-1.86
3.26
-1.01
-0.54
0.86

> <PUBCHEM_SHAPE_SELFOVERLAP>
1867.568

> <PUBCHEM_SHAPE_VOLUME>
485.4

> <PUBCHEM_COORDINATE_TYPE>
2
5
10

$$$$
