6442842
  -OEChem-07202400513D

 51 53  0     1  0  0  0  0  0999 V2000
    5.7020    0.5347   -0.7829 Cl  0  0  0  0  0  0  0  0  0  0  0  0
    5.7854   -2.0293   -1.7242 F   0  0  0  0  0  0  0  0  0  0  0  0
    3.6961   -2.4873   -1.2973 F   0  0  0  0  0  0  0  0  0  0  0  0
    5.2412   -2.9974    0.1472 F   0  0  0  0  0  0  0  0  0  0  0  0
    0.6420    1.5500   -0.2788 O   0  0  0  0  0  0  0  0  0  0  0  0
    2.6452    1.0677   -1.3292 O   0  0  0  0  0  0  0  0  0  0  0  0
    2.2783    1.1434    2.1923 C   0  0  0  0  0  0  0  0  0  0  0  0
    3.6009    0.8442    1.5499 C   0  0  2  0  0  0  0  0  0  0  0  0
    2.6618    1.8196    0.9152 C   0  0  1  0  0  0  0  0  0  0  0  0
    1.1766    0.1386    2.1263 C   0  0  0  0  0  0  0  0  0  0  0  0
    2.2943    1.9171    3.4678 C   0  0  0  0  0  0  0  0  0  0  0  0
    3.8270   -0.4303    0.8849 C   0  0  0  0  0  0  0  0  0  0  0  0
    2.0002    1.4353   -0.3577 C   0  0  0  0  0  0  0  0  0  0  0  0
    4.6843   -0.6988   -0.1135 C   0  0  0  0  0  0  0  0  0  0  0  0
   -0.0770    1.2025   -1.4547 C   0  0  0  0  0  0  0  0  0  0  0  0
    4.8514   -2.0434   -0.7380 C   0  0  0  0  0  0  0  0  0  0  0  0
   -1.5398    1.3797   -1.2098 C   0  0  0  0  0  0  0  0  0  0  0  0
   -2.3192    0.3356   -0.7120 C   0  0  0  0  0  0  0  0  0  0  0  0
   -2.1243    2.6155   -1.4870 C   0  0  0  0  0  0  0  0  0  0  0  0
   -3.6850    0.5249   -0.4905 C   0  0  0  0  0  0  0  0  0  0  0  0
   -1.6790   -0.9864   -0.4185 C   0  0  0  0  0  0  0  0  0  0  0  0
   -3.4881    2.8072   -1.2664 C   0  0  0  0  0  0  0  0  0  0  0  0
   -4.2676    1.7630   -0.7687 C   0  0  0  0  0  0  0  0  0  0  0  0
   -4.5171   -0.5400    0.0259 C   0  0  0  0  0  0  0  0  0  0  0  0
   -5.1529   -1.4172   -0.8525 C   0  0  0  0  0  0  0  0  0  0  0  0
   -4.6821   -0.6904    1.4028 C   0  0  0  0  0  0  0  0  0  0  0  0
   -5.9535   -2.4450   -0.3543 C   0  0  0  0  0  0  0  0  0  0  0  0
   -5.4827   -1.7182    1.9011 C   0  0  0  0  0  0  0  0  0  0  0  0
   -6.1184   -2.5956    1.0226 C   0  0  0  0  0  0  0  0  0  0  0  0
    4.4844    1.2527    2.0320 H   0  0  0  0  0  0  0  0  0  0  0  0
    2.9529    2.8645    0.9616 H   0  0  0  0  0  0  0  0  0  0  0  0
    1.1751   -0.4881    1.2312 H   0  0  0  0  0  0  0  0  0  0  0  0
    1.2458   -0.5451    2.9808 H   0  0  0  0  0  0  0  0  0  0  0  0
    0.2006    0.6332    2.1896 H   0  0  0  0  0  0  0  0  0  0  0  0
    1.3419    2.4375    3.6152 H   0  0  0  0  0  0  0  0  0  0  0  0
    2.4554    1.2505    4.3217 H   0  0  0  0  0  0  0  0  0  0  0  0
    3.0873    2.6731    3.4834 H   0  0  0  0  0  0  0  0  0  0  0  0
    3.2682   -1.2830    1.2665 H   0  0  0  0  0  0  0  0  0  0  0  0
    0.2389    1.8621   -2.2741 H   0  0  0  0  0  0  0  0  0  0  0  0
    0.1683    0.1827   -1.7728 H   0  0  0  0  0  0  0  0  0  0  0  0
   -1.5292    3.4393   -1.8724 H   0  0  0  0  0  0  0  0  0  0  0  0
   -1.5531   -1.5527   -1.3475 H   0  0  0  0  0  0  0  0  0  0  0  0
   -0.7035   -0.8638    0.0562 H   0  0  0  0  0  0  0  0  0  0  0  0
   -2.2468   -1.6096    0.2769 H   0  0  0  0  0  0  0  0  0  0  0  0
   -3.9430    3.7697   -1.4813 H   0  0  0  0  0  0  0  0  0  0  0  0
   -5.3292    1.9319   -0.6029 H   0  0  0  0  0  0  0  0  0  0  0  0
   -5.0342   -1.3146   -1.9286 H   0  0  0  0  0  0  0  0  0  0  0  0
   -4.1929   -0.0159    2.1017 H   0  0  0  0  0  0  0  0  0  0  0  0
   -6.4482   -3.1283   -1.0382 H   0  0  0  0  0  0  0  0  0  0  0  0
   -5.6109   -1.8357    2.9732 H   0  0  0  0  0  0  0  0  0  0  0  0
   -6.7416   -3.3960    1.4106 H   0  0  0  0  0  0  0  0  0  0  0  0
  1 14  1  0  0  0  0
  2 16  1  0  0  0  0
  3 16  1  0  0  0  0
  4 16  1  0  0  0  0
  5 13  1  0  0  0  0
  5 15  1  0  0  0  0
  6 13  2  0  0  0  0
  7  8  1  0  0  0  0
  7  9  1  0  0  0  0
  7 10  1  0  0  0  0
  7 11  1  0  0  0  0
  8  9  1  0  0  0  0
  8 12  1  0  0  0  0
  8 30  1  0  0  0  0
  9 13  1  0  0  0  0
  9 31  1  0  0  0  0
 10 32  1  0  0  0  0
 10 33  1  0  0  0  0
 10 34  1  0  0  0  0
 11 35  1  0  0  0  0
 11 36  1  0  0  0  0
 11 37  1  0  0  0  0
 12 14  2  0  0  0  0
 12 38  1  0  0  0  0
 14 16  1  0  0  0  0
 15 17  1  0  0  0  0
 15 39  1  0  0  0  0
 15 40  1  0  0  0  0
 17 18  2  0  0  0  0
 17 19  1  0  0  0  0
 18 20  1  0  0  0  0
 18 21  1  0  0  0  0
 19 22  2  0  0  0  0
 19 41  1  0  0  0  0
 20 23  2  0  0  0  0
 20 24  1  0  0  0  0
 21 42  1  0  0  0  0
 21 43  1  0  0  0  0
 21 44  1  0  0  0  0
 22 23  1  0  0  0  0
 22 45  1  0  0  0  0
 23 46  1  0  0  0  0
 24 25  2  0  0  0  0
 24 26  1  0  0  0  0
 25 27  1  0  0  0  0
 25 47  1  0  0  0  0
 26 28  2  0  0  0  0
 26 48  1  0  0  0  0
 27 29  2  0  0  0  0
 27 49  1  0  0  0  0
 28 29  1  0  0  0  0
 28 50  1  0  0  0  0
 29 51  1  0  0  0  0
M  END
> <PUBCHEM_COMPOUND_CID>
6442842

> <PUBCHEM_CONFORMER_RMSD>
1

> <PUBCHEM_CONFORMER_DIVERSEORDER>
1
16
60
29
52
55
44
54
4
49
9
27
37
32
18
14
39
56
30
20
38
5
34
46
47
17
19
48
61
11
36
7
31
24
23
10
63
40
6
28
50
2
59
62
33
21
26
15
12
58
25
8
42
45
51
35
13
3
22
43
57
41
53

> <PUBCHEM_MMFF94_PARTIAL_CHARGES>
37
1 -0.14
10 0.09
11 0.09
12 -0.19
13 0.72
15 0.42
16 1.16
17 -0.14
18 -0.14
19 -0.15
2 -0.34
21 0.14
22 -0.15
23 -0.15
25 -0.15
26 -0.15
27 -0.15
28 -0.15
29 -0.15
3 -0.34
30 0.1
31 0.1
38 0.15
4 -0.34
41 0.15
45 0.15
46 0.15
47 0.15
48 0.15
49 0.15
5 -0.43
50 0.15
51 0.15
6 -0.57
7 -0.19
8 -0.06
9 -0.1

> <PUBCHEM_EFFECTIVE_ROTOR_COUNT>
7.6

> <PUBCHEM_PHARMACOPHORE_FEATURES>
4
1 6 acceptor
3 7 10 11 hydrophobe
6 17 18 19 20 22 23 rings
6 24 25 26 27 28 29 rings

> <PUBCHEM_HEAVY_ATOM_COUNT>
29

> <PUBCHEM_ATOM_DEF_STEREO_COUNT>
2

> <PUBCHEM_ATOM_UDEF_STEREO_COUNT>
0

> <PUBCHEM_BOND_DEF_STEREO_COUNT>
1

> <PUBCHEM_BOND_UDEF_STEREO_COUNT>
0

> <PUBCHEM_ISOTOPIC_ATOM_COUNT>
0

> <PUBCHEM_COMPONENT_COUNT>
1

> <PUBCHEM_CACTVS_TAUTO_COUNT>
1

> <PUBCHEM_CONFORMER_ID>
00624F5A00000001

> <PUBCHEM_MMFF94_ENERGY>
81.0363

> <PUBCHEM_FEATURE_SELFOVERLAP>
20.297

> <PUBCHEM_SHAPE_FINGERPRINT>
10940486 97 15943408216740314040
10981352 41 18340768260364857175
11545043 162 18412821365713171449
11552529 35 16483853726609217863
117089 54 18261399909859917450
11796584 16 18193551173687034204
11991303 11 17314496043076605365
12422481 6 18272937159027602447
12539747 164 17262729777379152798
12616971 3 15339119078324782561
12633257 1 16200146620877232357
13583140 156 17702926124109304333
13673619 4 18342181055084992766
13782708 43 18342737416332293927
13965767 371 13398357823982707548
14251740 57 18262238944842670579
14251764 30 18410296908348131747
14950920 106 17203048582011309835
14951699 99 12175319436850343850
15082195 135 13551734258533878519
15131766 46 16555629850504298025
17138139 8 16154273960800125777
193927 3 18113336444627099677
20775438 99 16950576493275358266
21065201 7 18261941956228179333
21315759 148 18412820296203206464
21703447 108 17678168511503751381
21859007 373 13325760365308368089
2303208 19 18343021086115835798
23559900 14 18335693932302874149
239999 70 17604427539156023460
25122255 55 18334292085289663183
268830 7 15841259454244777264
2838139 119 8213555798136631198
3004659 81 17168416177681271013
3459 39 12463573946095827915
437795 51 18060135488444495448
4435113 14 18339659840315695167
46194498 28 18336546114196824964
508706 21 18334288743689133687
563151 74 17202188815268158154
56633871 153 18267869561569982495
57724786 102 16343137073209386160
613672 6 17970613294407237411
6823239 73 18261667099858875344
7970288 3 18189903204808033751
86090 222 18409167735650505290
8863177 126 18413669102089521078
960060 61 14418401213852758057

> <PUBCHEM_SHAPE_MULTIPOLES>
565.12
15.72
3.22
2.32
3.17
0.56
2.03
12.72
-0.96
1.25
-1.02
-1.92
-0.55
3.82

> <PUBCHEM_SHAPE_SELFOVERLAP>
1208.403

> <PUBCHEM_SHAPE_VOLUME>
316.5

> <PUBCHEM_COORDINATE_TYPE>
2
5
10

$$$$
