6451142
  -OEChem-07202400503D

 36 38  0     1  0  0  0  0  0999 V2000
   -1.9199   -2.1387   -1.8245 Cl  0  0  0  0  0  0  0  0  0  0  0  0
    2.7179   -1.1327    2.1485 Cl  0  0  0  0  0  0  0  0  0  0  0  0
   -1.1577    2.7649    1.4881 S   0  0  0  0  0  0  0  0  0  0  0  0
   -0.2087   -0.4582    1.2890 O   0  0  0  0  0  0  0  0  0  0  0  0
   -1.9385    0.9524   -0.4059 N   0  0  0  0  0  0  0  0  0  0  0  0
   -3.1247    0.5467   -0.9678 N   0  0  0  0  0  0  0  0  0  0  0  0
   -3.6413    2.0934    0.5745 N   0  0  0  0  0  0  0  0  0  0  0  0
   -1.2575   -1.9715   -0.2127 C   0  0  0  0  0  0  0  0  0  0  0  0
   -1.0289   -3.1870    0.6126 C   0  0  0  0  0  0  0  0  0  0  0  0
   -2.1279   -2.2279    0.9654 C   0  0  0  0  0  0  0  0  0  0  0  0
   -0.2419   -0.8507   -0.0898 C   0  0  1  0  0  0  0  0  0  0  0  0
   -0.7064    0.3864   -0.8795 C   0  0  0  0  0  0  0  0  0  0  0  0
    1.1601   -1.3726   -0.5013 C   0  0  0  0  0  0  0  0  0  0  0  0
    2.2838   -0.3636   -0.4303 C   0  0  0  0  0  0  0  0  0  0  0  0
    3.0267   -0.2014    0.7284 C   0  0  0  0  0  0  0  0  0  0  0  0
    2.5434    0.3935   -1.5628 C   0  0  0  0  0  0  0  0  0  0  0  0
   -2.2551    1.9268    0.5402 C   0  0  0  0  0  0  0  0  0  0  0  0
   -4.0760    1.2534   -0.3181 C   0  0  0  0  0  0  0  0  0  0  0  0
    4.0546    0.7410    0.7563 C   0  0  0  0  0  0  0  0  0  0  0  0
    3.5713    1.3360   -1.5349 C   0  0  0  0  0  0  0  0  0  0  0  0
    4.3268    1.5098   -0.3753 C   0  0  0  0  0  0  0  0  0  0  0  0
   -0.1947   -3.2472    1.3004 H   0  0  0  0  0  0  0  0  0  0  0  0
   -1.3193   -4.1523    0.2129 H   0  0  0  0  0  0  0  0  0  0  0  0
   -3.1478   -2.5579    0.7906 H   0  0  0  0  0  0  0  0  0  0  0  0
   -2.0383   -1.6857    1.8971 H   0  0  0  0  0  0  0  0  0  0  0  0
   -0.7655    0.2240   -1.9613 H   0  0  0  0  0  0  0  0  0  0  0  0
    0.0350    1.1812   -0.7457 H   0  0  0  0  0  0  0  0  0  0  0  0
    1.1069   -1.7483   -1.5337 H   0  0  0  0  0  0  0  0  0  0  0  0
    1.4419   -2.2600    0.0765 H   0  0  0  0  0  0  0  0  0  0  0  0
    0.3131   -1.1100    1.7866 H   0  0  0  0  0  0  0  0  0  0  0  0
   -3.2058   -0.2081   -1.6343 H   0  0  0  0  0  0  0  0  0  0  0  0
    1.9643    0.2679   -2.4733 H   0  0  0  0  0  0  0  0  0  0  0  0
   -5.1239    1.0692   -0.5921 H   0  0  0  0  0  0  0  0  0  0  0  0
    4.6525    0.8890    1.6521 H   0  0  0  0  0  0  0  0  0  0  0  0
    3.7835    1.9345   -2.4160 H   0  0  0  0  0  0  0  0  0  0  0  0
    5.1270    2.2439   -0.3538 H   0  0  0  0  0  0  0  0  0  0  0  0
  1  8  1  0  0  0  0
  2 15  1  0  0  0  0
  3 17  2  0  0  0  0
  4 11  1  0  0  0  0
  4 30  1  0  0  0  0
  5  6  1  0  0  0  0
  5 12  1  0  0  0  0
  5 17  1  0  0  0  0
  6 18  1  0  0  0  0
  6 31  1  0  0  0  0
  7 17  1  0  0  0  0
  7 18  2  0  0  0  0
  8  9  1  0  0  0  0
  8 10  1  0  0  0  0
  8 11  1  0  0  0  0
  9 10  1  0  0  0  0
  9 22  1  0  0  0  0
  9 23  1  0  0  0  0
 10 24  1  0  0  0  0
 10 25  1  0  0  0  0
 11 12  1  0  0  0  0
 11 13  1  0  0  0  0
 12 26  1  0  0  0  0
 12 27  1  0  0  0  0
 13 14  1  0  0  0  0
 13 28  1  0  0  0  0
 13 29  1  0  0  0  0
 14 15  1  0  0  0  0
 14 16  2  0  0  0  0
 15 19  2  0  0  0  0
 16 20  1  0  0  0  0
 16 32  1  0  0  0  0
 18 33  1  0  0  0  0
 19 21  1  0  0  0  0
 19 34  1  0  0  0  0
 20 21  2  0  0  0  0
 20 35  1  0  0  0  0
 21 36  1  0  0  0  0
M  END
> <PUBCHEM_COMPOUND_CID>
6451142

> <PUBCHEM_CONFORMER_RMSD>
0.8

> <PUBCHEM_CONFORMER_DIVERSEORDER>
5
25
20
18
32
28
24
23
26
31
16
29
17
27
21
9
14
4
30
12
15
19
8
10
6
22
11
3
7
2
13
1

> <PUBCHEM_MMFF94_PARTIAL_CHARGES>
32
1 -0.23
10 -0.2
11 0.38
12 0.3
13 0.14
14 -0.14
15 0.18
16 -0.15
17 0.65
18 0.44
19 -0.15
2 -0.18
20 -0.15
21 -0.15
22 0.1
23 0.1
24 0.1
25 0.1
3 -0.38
30 0.4
31 0.4
32 0.15
33 0.06
34 0.15
35 0.15
36 0.15
4 -0.68
5 -0.34
6 -0.47
7 -0.66
8 0.13
9 -0.2

> <PUBCHEM_EFFECTIVE_ROTOR_COUNT>
5.6

> <PUBCHEM_PHARMACOPHORE_FEATURES>
7
1 3 acceptor
1 4 acceptor
1 4 donor
1 6 donor
3 6 7 18 cation
5 5 6 7 17 18 rings
6 14 15 16 19 20 21 rings

> <PUBCHEM_HEAVY_ATOM_COUNT>
21

> <PUBCHEM_ATOM_DEF_STEREO_COUNT>
0

> <PUBCHEM_ATOM_UDEF_STEREO_COUNT>
1

> <PUBCHEM_BOND_DEF_STEREO_COUNT>
0

> <PUBCHEM_BOND_UDEF_STEREO_COUNT>
0

> <PUBCHEM_ISOTOPIC_ATOM_COUNT>
0

> <PUBCHEM_COMPONENT_COUNT>
1

> <PUBCHEM_CACTVS_TAUTO_COUNT>
3

> <PUBCHEM_CONFORMER_ID>
00626FC600000005

> <PUBCHEM_MMFF94_ENERGY>
75.2788

> <PUBCHEM_FEATURE_SELFOVERLAP>
35.521

> <PUBCHEM_SHAPE_FINGERPRINT>
10498660 4 18272936050493490340
11640471 11 18259985976839974876
12173636 292 18410012139163004215
12788726 201 18266175209355387251
13538477 17 18334013904336441024
13583140 156 17095249128691906545
13764800 53 18341622528763224392
13965767 371 18042401331596941716
14251757 17 15338545017048471369
14787075 74 18412823595344244229
15534591 1 18409728460947399823
16752209 62 18339072812822701918
16945 1 17988351611923080039
1741750 31 18411142432821351414
18186145 218 18195531393711908069
18981168 100 18198928970831199282
204376 136 18334016051851744093
20510252 161 18338243772459987099
20525323 117 18336825402592044510
20715895 44 17683225981402353541
20905425 154 17620202365402166076
21524375 3 18197783193551927831
23419403 2 17544165617323785181
23493267 7 18411706504125370234
23557571 272 18199754803006091004
23559900 14 18271805666946784990
23598288 3 18338794627891303238
23622692 88 18115295667153189850
394222 165 18049720720605145571
4340502 62 17022907826847895905
474 4 18121507860257343577
633830 44 18127132974703761877
7097593 13 17895178971084804018
7615 1 18041546044789190634
81228 2 18339085998488111255
9981440 41 18272923925821945594

> <PUBCHEM_SHAPE_MULTIPOLES>
418.95
7.16
3.15
1.72
3.67
0.41
-0.14
-3.95
0.69
-2.99
-0.86
0.78
0.24
-1.09

> <PUBCHEM_SHAPE_SELFOVERLAP>
867.445

> <PUBCHEM_SHAPE_VOLUME>
244.5

> <PUBCHEM_COORDINATE_TYPE>
2
5
10

$$$$
