6451155
  -OEChem-07202400563D

 39 41  0     0  0  0  0  0  0999 V2000
   -0.1987   -0.1221    1.7753 O   0  0  0  0  0  0  0  0  0  0  0  0
    3.5829   -0.8223   -0.2954 O   0  0  0  0  0  0  0  0  0  0  0  0
    3.8141    0.9800    1.1553 O   0  0  0  0  0  0  0  0  0  0  0  0
    1.1756    0.1869    1.9485 N   0  0  0  0  0  0  0  0  0  0  0  0
   -0.4993   -0.1323    0.3478 C   0  0  0  0  0  0  0  0  0  0  0  0
    0.8450   -0.5928   -0.2420 C   0  0  0  0  0  0  0  0  0  0  0  0
   -1.6352   -1.1250    0.0969 C   0  0  0  0  0  0  0  0  0  0  0  0
   -0.9223    1.2749   -0.1014 C   0  0  0  0  0  0  0  0  0  0  0  0
    1.7285   -0.0639    0.8147 C   0  0  0  0  0  0  0  0  0  0  0  0
   -1.7161   -1.7987   -1.1218 C   0  0  0  0  0  0  0  0  0  0  0  0
   -1.5520    2.1364    0.7983 C   0  0  0  0  0  0  0  0  0  0  0  0
   -2.5907   -1.3563    1.0863 C   0  0  0  0  0  0  0  0  0  0  0  0
   -0.6781    1.6940   -1.4101 C   0  0  0  0  0  0  0  0  0  0  0  0
    3.1769    0.1102    0.5879 C   0  0  0  0  0  0  0  0  0  0  0  0
   -2.7525   -2.7038   -1.3509 C   0  0  0  0  0  0  0  0  0  0  0  0
   -1.9366    3.4137    0.3904 C   0  0  0  0  0  0  0  0  0  0  0  0
   -3.6269   -2.2614    0.8573 C   0  0  0  0  0  0  0  0  0  0  0  0
   -1.0624    2.9713   -1.8180 C   0  0  0  0  0  0  0  0  0  0  0  0
   -3.7079   -2.9352   -0.3614 C   0  0  0  0  0  0  0  0  0  0  0  0
   -1.6917    3.8311   -0.9178 C   0  0  0  0  0  0  0  0  0  0  0  0
    4.9754   -0.7921   -0.6217 C   0  0  0  0  0  0  0  0  0  0  0  0
    5.2723   -1.8926   -1.6181 C   0  0  0  0  0  0  0  0  0  0  0  0
    1.1132   -0.2263   -1.2319 H   0  0  0  0  0  0  0  0  0  0  0  0
    0.9550   -1.6843   -0.2264 H   0  0  0  0  0  0  0  0  0  0  0  0
   -0.9915   -1.6273   -1.9127 H   0  0  0  0  0  0  0  0  0  0  0  0
   -1.7625    1.8330    1.8200 H   0  0  0  0  0  0  0  0  0  0  0  0
   -2.5582   -0.8380    2.0405 H   0  0  0  0  0  0  0  0  0  0  0  0
   -0.2264    1.0439   -2.1517 H   0  0  0  0  0  0  0  0  0  0  0  0
   -2.8174   -3.2263   -2.3009 H   0  0  0  0  0  0  0  0  0  0  0  0
   -2.4290    4.0824    1.0904 H   0  0  0  0  0  0  0  0  0  0  0  0
   -4.3725   -2.4397    1.6266 H   0  0  0  0  0  0  0  0  0  0  0  0
   -0.8802    3.2936   -2.8391 H   0  0  0  0  0  0  0  0  0  0  0  0
   -4.5156   -3.6388   -0.5402 H   0  0  0  0  0  0  0  0  0  0  0  0
   -1.9935    4.8246   -1.2362 H   0  0  0  0  0  0  0  0  0  0  0  0
    5.2271    0.1811   -1.0580 H   0  0  0  0  0  0  0  0  0  0  0  0
    5.5669   -0.9458    0.2878 H   0  0  0  0  0  0  0  0  0  0  0  0
    6.3313   -1.8983   -1.8907 H   0  0  0  0  0  0  0  0  0  0  0  0
    5.0088   -2.8705   -1.2019 H   0  0  0  0  0  0  0  0  0  0  0  0
    4.6739   -1.7619   -2.5258 H   0  0  0  0  0  0  0  0  0  0  0  0
  1  4  1  0  0  0  0
  1  5  1  0  0  0  0
  2 14  1  0  0  0  0
  2 21  1  0  0  0  0
  3 14  2  0  0  0  0
  4  9  2  0  0  0  0
  5  6  1  0  0  0  0
  5  7  1  0  0  0  0
  5  8  1  0  0  0  0
  6  9  1  0  0  0  0
  6 23  1  0  0  0  0
  6 24  1  0  0  0  0
  7 10  2  0  0  0  0
  7 12  1  0  0  0  0
  8 11  2  0  0  0  0
  8 13  1  0  0  0  0
  9 14  1  0  0  0  0
 10 15  1  0  0  0  0
 10 25  1  0  0  0  0
 11 16  1  0  0  0  0
 11 26  1  0  0  0  0
 12 17  2  0  0  0  0
 12 27  1  0  0  0  0
 13 18  2  0  0  0  0
 13 28  1  0  0  0  0
 15 19  2  0  0  0  0
 15 29  1  0  0  0  0
 16 20  2  0  0  0  0
 16 30  1  0  0  0  0
 17 19  1  0  0  0  0
 17 31  1  0  0  0  0
 18 20  1  0  0  0  0
 18 32  1  0  0  0  0
 19 33  1  0  0  0  0
 20 34  1  0  0  0  0
 21 22  1  0  0  0  0
 21 35  1  0  0  0  0
 21 36  1  0  0  0  0
 22 37  1  0  0  0  0
 22 38  1  0  0  0  0
 22 39  1  0  0  0  0
M  END
> <PUBCHEM_COMPOUND_CID>
6451155

> <PUBCHEM_CONFORMER_RMSD>
0.8

> <PUBCHEM_CONFORMER_DIVERSEORDER>
1
12
25
18
11
10
15
8
13
23
17
5
14
2
20
7
24
6
22
16
9
3
19
4
21

> <PUBCHEM_MMFF94_PARTIAL_CHARGES>
31
1 -0.22
10 -0.15
11 -0.15
12 -0.15
13 -0.15
14 0.72
15 -0.15
16 -0.15
17 -0.15
18 -0.15
19 -0.15
2 -0.43
20 -0.15
21 0.28
25 0.15
26 0.15
27 0.15
28 0.15
29 0.15
3 -0.57
30 0.15
31 0.15
32 0.15
33 0.15
34 0.15
4 -0.51
5 0.57
6 0.06
7 -0.14
8 -0.14
9 0.39

> <PUBCHEM_EFFECTIVE_ROTOR_COUNT>
5.6

> <PUBCHEM_PHARMACOPHORE_FEATURES>
5
1 3 acceptor
1 4 acceptor
5 1 4 5 6 9 rings
6 7 10 12 15 17 19 rings
6 8 11 13 16 18 20 rings

> <PUBCHEM_HEAVY_ATOM_COUNT>
22

> <PUBCHEM_ATOM_DEF_STEREO_COUNT>
0

> <PUBCHEM_ATOM_UDEF_STEREO_COUNT>
0

> <PUBCHEM_BOND_DEF_STEREO_COUNT>
0

> <PUBCHEM_BOND_UDEF_STEREO_COUNT>
0

> <PUBCHEM_ISOTOPIC_ATOM_COUNT>
0

> <PUBCHEM_COMPONENT_COUNT>
1

> <PUBCHEM_CACTVS_TAUTO_COUNT>
1

> <PUBCHEM_CONFORMER_ID>
00626FD300000001

> <PUBCHEM_MMFF94_ENERGY>
62.3588

> <PUBCHEM_FEATURE_SELFOVERLAP>
25.375

> <PUBCHEM_SHAPE_FINGERPRINT>
10165383 225 17980496563141585952
10391435 84 17768251216417490158
105312 117 18050292462282885716
10764073 3 17058396728928611451
11101153 10 18189345731248995876
11578080 2 13248395579225328139
11809386 21 18335984160829258418
12160290 23 18192687000349692473
12643181 29 17837219173953744198
12714826 92 18271806796264591026
12788726 201 18187635869733077099
13009979 54 17913229803817792715
13134695 92 17903908195713460677
13257819 37 18118684305997145949
13681431 1 17902224843184560085
13690498 29 18270417018315854174
13911987 19 17534065443803699718
13955234 65 10079389728423588333
14022347 108 18189043364538514043
14713325 29 18337400318377021942
14863182 85 16186896689660891999
14910302 57 18272369755002969750
15475509 8 18410567406153461559
15842332 3 17387120993260917914
15849732 13 18412272757383279371
17357779 13 18197754778312009383
17539 30 18410003321726968877
1813 80 18266179620064987927
20600515 1 17897434219192446088
21041028 32 18189899906262029281
21202864 24 18267318542592377089
21304303 282 17251119105196131021
21524375 3 17756695343652754881
22112679 90 18263383514983028273
22620623 9 18410572851443667574
22849341 161 18193296271910438947
22907989 373 18410290289872061908
23175994 123 18115868680120215235
23419403 2 17909517865326191449
23557571 272 18336814403386313224
283562 15 18261103097696670770
3057174 1 17543332870504806709
3729539 64 17115807513788304054
44062 13 18194972842517719454
458136 41 17547849655956653361
484985 159 17487076469982123718
497634 4 17774181075370839120
57210444 14 17910394983314667988
57262259 84 18411414016625425831
58260988 587 17114401238411272225
5845 1 12928302846486214033
59554788 62 17699825608961832706
6049 1 18202277005492253856
621550 34 17914040148293044760
621550 5 18201162156061347984
6442390 28 18052253999659509481
6786 2 17763190137674219517
6913067 236 17841121632255107730
70251023 43 18336829787922445834
7364860 26 17544466918170220409
7399639 24 18128804434673947912
7615 1 17313651647825602304
81228 2 18262222370532253033
84936 31 17332510780118024969

> <PUBCHEM_SHAPE_MULTIPOLES>
430.16
7.55
4.3
1.67
12.74
3.13
-0.05
-6.73
-1.57
-5.6
-1.81
0.23
0.16
1.05

> <PUBCHEM_SHAPE_SELFOVERLAP>
930.499

> <PUBCHEM_SHAPE_VOLUME>
235.7

> <PUBCHEM_COORDINATE_TYPE>
2
5
10

$$$$
