6538287
  -OEChem-07202400563D

 30 31  0     0  0  0  0  0  0999 V2000
   -2.0808   -1.0988    0.0651 O   0  0  0  0  0  0  0  0  0  0  0  0
   -1.5854   -3.3411    0.0930 O   0  0  0  0  0  0  0  0  0  0  0  0
   -3.0443    1.6394    0.0203 N   0  0  0  0  0  0  0  0  0  0  0  0
    2.2268   -3.2573    0.0395 N   0  0  0  0  0  0  0  0  0  0  0  0
    0.1245   -0.3864    0.0131 C   0  0  0  0  0  0  0  0  0  0  0  0
   -1.2513    0.0166    0.0293 C   0  0  0  0  0  0  0  0  0  0  0  0
    1.3109    0.4748   -0.0153 C   0  0  0  0  0  0  0  0  0  0  0  0
    0.1667   -1.7183    0.0350 C   0  0  0  0  0  0  0  0  0  0  0  0
   -1.7431    1.2596    0.0086 C   0  0  0  0  0  0  0  0  0  0  0  0
   -1.2305   -2.1733    0.0669 C   0  0  0  0  0  0  0  0  0  0  0  0
    1.8635    0.8659   -1.2367 C   0  0  0  0  0  0  0  0  0  0  0  0
    1.8917    0.9072    1.1787 C   0  0  0  0  0  0  0  0  0  0  0  0
   -4.0564    0.9435   -0.7730 C   0  0  0  0  0  0  0  0  0  0  0  0
   -3.4712    2.9025    0.6202 C   0  0  0  0  0  0  0  0  0  0  0  0
    2.9918    1.6857   -1.2639 C   0  0  0  0  0  0  0  0  0  0  0  0
    3.0198    1.7270    1.1516 C   0  0  0  0  0  0  0  0  0  0  0  0
    3.5699    2.1162   -0.0698 C   0  0  0  0  0  0  0  0  0  0  0  0
    1.2973   -2.5632    0.0374 C   0  0  0  0  0  0  0  0  0  0  0  0
   -1.0686    2.1091    0.0690 H   0  0  0  0  0  0  0  0  0  0  0  0
    1.4244    0.5394   -2.1765 H   0  0  0  0  0  0  0  0  0  0  0  0
    1.4748    0.6133    2.1391 H   0  0  0  0  0  0  0  0  0  0  0  0
   -4.8341    1.6354   -1.1157 H   0  0  0  0  0  0  0  0  0  0  0  0
   -3.6225    0.4817   -1.6671 H   0  0  0  0  0  0  0  0  0  0  0  0
   -4.5371    0.1665   -0.1698 H   0  0  0  0  0  0  0  0  0  0  0  0
   -3.4280    3.7064   -0.1218 H   0  0  0  0  0  0  0  0  0  0  0  0
   -2.8305    3.1743    1.4666 H   0  0  0  0  0  0  0  0  0  0  0  0
   -4.4971    2.8270    0.9964 H   0  0  0  0  0  0  0  0  0  0  0  0
    3.4201    1.9889   -2.2147 H   0  0  0  0  0  0  0  0  0  0  0  0
    3.4700    2.0625    2.0813 H   0  0  0  0  0  0  0  0  0  0  0  0
    4.4484    2.7546   -0.0910 H   0  0  0  0  0  0  0  0  0  0  0  0
  1  6  1  0  0  0  0
  1 10  1  0  0  0  0
  2 10  2  0  0  0  0
  3  9  1  0  0  0  0
  3 13  1  0  0  0  0
  3 14  1  0  0  0  0
  4 18  3  0  0  0  0
  5  6  1  0  0  0  0
  5  7  1  0  0  0  0
  5  8  2  0  0  0  0
  6  9  2  0  0  0  0
  7 11  2  0  0  0  0
  7 12  1  0  0  0  0
  8 10  1  0  0  0  0
  8 18  1  0  0  0  0
  9 19  1  0  0  0  0
 11 15  1  0  0  0  0
 11 20  1  0  0  0  0
 12 16  2  0  0  0  0
 12 21  1  0  0  0  0
 13 22  1  0  0  0  0
 13 23  1  0  0  0  0
 13 24  1  0  0  0  0
 14 25  1  0  0  0  0
 14 26  1  0  0  0  0
 14 27  1  0  0  0  0
 15 17  2  0  0  0  0
 15 28  1  0  0  0  0
 16 17  1  0  0  0  0
 16 29  1  0  0  0  0
 17 30  1  0  0  0  0
M  END
> <PUBCHEM_COMPOUND_CID>
6538287

> <PUBCHEM_CONFORMER_RMSD>
0.6

> <PUBCHEM_CONFORMER_DIVERSEORDER>
1
3
2

> <PUBCHEM_MMFF94_PARTIAL_CHARGES>
24
1 -0.23
10 0.71
11 -0.15
12 -0.15
13 0.37
14 0.37
15 -0.15
16 -0.15
17 -0.15
18 0.49
19 0.15
2 -0.57
20 0.15
21 0.15
28 0.15
29 0.15
3 -0.84
30 0.15
4 -0.56
5 -0.03
6 0.08
7 0.03
8 0.08
9 -0.05

> <PUBCHEM_EFFECTIVE_ROTOR_COUNT>
2.2

> <PUBCHEM_PHARMACOPHORE_FEATURES>
5
1 2 acceptor
1 3 cation
1 4 acceptor
5 1 5 6 8 10 rings
6 7 11 12 15 16 17 rings

> <PUBCHEM_HEAVY_ATOM_COUNT>
18

> <PUBCHEM_ATOM_DEF_STEREO_COUNT>
0

> <PUBCHEM_ATOM_UDEF_STEREO_COUNT>
0

> <PUBCHEM_BOND_DEF_STEREO_COUNT>
1

> <PUBCHEM_BOND_UDEF_STEREO_COUNT>
0

> <PUBCHEM_ISOTOPIC_ATOM_COUNT>
0

> <PUBCHEM_COMPONENT_COUNT>
1

> <PUBCHEM_CACTVS_TAUTO_COUNT>
1

> <PUBCHEM_CONFORMER_ID>
0063C42F00000001

> <PUBCHEM_MMFF94_ENERGY>
47.423

> <PUBCHEM_FEATURE_SELFOVERLAP>
25.371

> <PUBCHEM_SHAPE_FINGERPRINT>
11578080 2 12916566044974537676
11582403 64 16555894729457630088
11680986 33 18336548213871447355
11725454 13 16771512275294951224
12173636 292 18194680599524922924
12788726 201 17830179360648302322
13132413 78 17333088624844111412
13140716 1 18265337205606610811
13294875 104 18201431437990187728
13464514 151 18200041642207303764
13764800 53 18337114574260899833
13878862 14 17543346060988987629
13965767 371 18114731655873971340
14178342 30 18336258050428760056
14955137 171 17621622526503495307
16752209 62 18048871085468349846
16945 1 18266459995640684603
17134986 127 18335709316537806252
1741750 31 18411419544021943385
18785283 64 18119264882216670817
193761 8 18410293609792525915
20510252 161 18053107512244106464
20511035 2 18342450400821313086
20671657 1 18338799992136066213
21524375 3 18333445439376207249
21650355 55 17402879520143003906
2255824 54 18121782725358169143
2334 1 18410013217542680047
23402539 116 17695342972990998814
23419403 2 17176643672541029440
23526113 38 17632302327846825320
23557571 272 17765724907319605892
23558518 356 18334571343762984523
23559900 14 18272943735007576364
266924 87 18268141140119006623
2748010 2 18335150752152006855
3071541 12 18267023855879090406
3071541 158 17904201429798853324
350125 39 18337964398022795635
352729 6 18192150610426465925
474 4 18264486179333226849
6442390 28 18269860695327684481
7364860 26 18268988691906155242
77492 1 17387962325651189172
81228 2 17621613030182961362
84936 182 18200027326912839129
9981440 41 18339629148436414552

> <PUBCHEM_SHAPE_MULTIPOLES>
348.73
6
3.91
1
2.13
2.89
-0.06
-5.52
-0.37
0.4
0.38
-0.63
-0.52
-0.22

> <PUBCHEM_SHAPE_SELFOVERLAP>
750.229

> <PUBCHEM_SHAPE_VOLUME>
192.5

> <PUBCHEM_COORDINATE_TYPE>
2
5
10

$$$$
