6918670
  -OEChem-07202400403D

 65 68  0     1  0  0  0  0  0999 V2000
   -0.7410    0.1672    1.0330 O   0  0  0  0  0  0  0  0  0  0  0  0
    2.4094   -1.0345   -1.9446 O   0  0  0  0  0  0  0  0  0  0  0  0
   -2.8252   -0.3222   -0.5667 O   0  0  0  0  0  0  0  0  0  0  0  0
   -0.5293   -2.4550    1.9045 O   0  0  0  0  0  0  0  0  0  0  0  0
    1.9606   -4.4510    1.2058 O   0  0  0  0  0  0  0  0  0  0  0  0
   -3.3396   -0.4470    1.6740 O   0  0  0  0  0  0  0  0  0  0  0  0
    3.1217    1.2311   -0.1747 C   0  0  1  0  0  0  0  0  0  0  0  0
    2.2868    2.3553   -0.7790 C   0  0  2  0  0  0  0  0  0  0  0  0
    3.0489    2.5709    0.5055 C   0  0  0  0  0  0  0  0  0  0  0  0
    2.2806    0.0704    0.1980 C   0  0  1  0  0  0  0  0  0  0  0  0
    0.7594    2.3428   -0.7250 C   0  0  0  0  0  0  0  0  0  0  0  0
    0.2305   -0.2601   -1.2332 C   0  0  2  0  0  0  0  0  0  0  0  0
    0.0276    1.2701   -1.6022 C   0  0  2  0  0  0  0  0  0  0  0  0
   -0.4772   -0.8420    0.0633 C   0  0  1  0  0  0  0  0  0  0  0  0
    1.7105   -0.4912   -1.0918 C   0  0  0  0  0  0  0  0  0  0  0  0
    2.2387    2.6480    1.7570 C   0  0  0  0  0  0  0  0  0  0  0  0
    4.2690    3.4274    0.5614 C   0  0  0  0  0  0  0  0  0  0  0  0
    2.6762   -1.1210    0.9714 C   0  0  0  0  0  0  0  0  0  0  0  0
   -0.3504   -1.1861   -2.2793 C   0  0  0  0  0  0  0  0  0  0  0  0
    0.2761   -2.0785    0.7721 C   0  0  1  0  0  0  0  0  0  0  0  0
   -1.8475   -1.3512   -0.4864 C   0  0  2  0  0  0  0  0  0  0  0  0
    0.3554    1.5670   -3.0812 C   0  0  0  0  0  0  0  0  0  0  0  0
    1.7562   -2.0754    1.2410 C   0  0  0  0  0  0  0  0  0  0  0  0
   -1.4913   -1.7613   -1.8798 C   0  0  0  0  0  0  0  0  0  0  0  0
    2.1877   -3.3065    2.0011 C   0  0  0  0  0  0  0  0  0  0  0  0
   -2.3571   -2.6735   -2.6702 C   0  0  0  0  0  0  0  0  0  0  0  0
   -3.2695    0.1761    0.6241 C   0  0  0  0  0  0  0  0  0  0  0  0
   -3.6682    1.6066    0.4565 C   0  0  0  0  0  0  0  0  0  0  0  0
   -4.1492    2.0582   -0.8905 C   0  0  0  0  0  0  0  0  0  0  0  0
   -3.5284    2.3865    1.5444 C   0  0  0  0  0  0  0  0  0  0  0  0
   -3.0213    1.9787    2.8914 C   0  0  0  0  0  0  0  0  0  0  0  0
    4.0376    0.9551   -0.6834 H   0  0  0  0  0  0  0  0  0  0  0  0
    2.6622    2.8122   -1.6870 H   0  0  0  0  0  0  0  0  0  0  0  0
    1.4699    0.4543    0.7965 H   0  0  0  0  0  0  0  0  0  0  0  0
    0.3440    2.2828    0.2800 H   0  0  0  0  0  0  0  0  0  0  0  0
    0.4390    3.3348   -1.0738 H   0  0  0  0  0  0  0  0  0  0  0  0
   -1.0429    1.4813   -1.4892 H   0  0  0  0  0  0  0  0  0  0  0  0
    1.4445    1.9271    1.9391 H   0  0  0  0  0  0  0  0  0  0  0  0
    2.9057    2.5482    2.6232 H   0  0  0  0  0  0  0  0  0  0  0  0
    1.7815    3.6425    1.8327 H   0  0  0  0  0  0  0  0  0  0  0  0
    3.9999    4.4740    0.7394 H   0  0  0  0  0  0  0  0  0  0  0  0
    4.9383    3.1018    1.3646 H   0  0  0  0  0  0  0  0  0  0  0  0
    4.8328    3.3866   -0.3770 H   0  0  0  0  0  0  0  0  0  0  0  0
    3.6993   -1.2052    1.3228 H   0  0  0  0  0  0  0  0  0  0  0  0
    0.0786   -1.3321   -3.2621 H   0  0  0  0  0  0  0  0  0  0  0  0
    0.2072   -2.9204    0.0705 H   0  0  0  0  0  0  0  0  0  0  0  0
   -2.2473   -2.2001    0.0798 H   0  0  0  0  0  0  0  0  0  0  0  0
    1.3824    1.2853   -3.3339 H   0  0  0  0  0  0  0  0  0  0  0  0
   -0.3221    1.0340   -3.7556 H   0  0  0  0  0  0  0  0  0  0  0  0
    0.2357    2.6338   -3.3011 H   0  0  0  0  0  0  0  0  0  0  0  0
   -1.0699   -0.2690    1.8358 H   0  0  0  0  0  0  0  0  0  0  0  0
    1.6225   -3.4073    2.9328 H   0  0  0  0  0  0  0  0  0  0  0  0
    3.2492   -3.2828    2.2703 H   0  0  0  0  0  0  0  0  0  0  0  0
   -3.3579   -2.2459   -2.7857 H   0  0  0  0  0  0  0  0  0  0  0  0
   -2.4486   -3.6414   -2.1676 H   0  0  0  0  0  0  0  0  0  0  0  0
   -1.9491   -2.8507   -3.6705 H   0  0  0  0  0  0  0  0  0  0  0  0
   -0.2879   -1.8792    2.6500 H   0  0  0  0  0  0  0  0  0  0  0  0
    2.5030   -4.3686    0.4026 H   0  0  0  0  0  0  0  0  0  0  0  0
   -4.5075    3.0927   -0.8586 H   0  0  0  0  0  0  0  0  0  0  0  0
   -3.3485    2.0084   -1.6339 H   0  0  0  0  0  0  0  0  0  0  0  0
   -4.9811    1.4315   -1.2280 H   0  0  0  0  0  0  0  0  0  0  0  0
   -3.8100    3.4342    1.4550 H   0  0  0  0  0  0  0  0  0  0  0  0
   -2.7981    2.8808    3.4728 H   0  0  0  0  0  0  0  0  0  0  0  0
   -2.0899    1.4129    2.8455 H   0  0  0  0  0  0  0  0  0  0  0  0
   -3.7822    1.4216    3.4459 H   0  0  0  0  0  0  0  0  0  0  0  0
  1 14  1  0  0  0  0
  1 51  1  0  0  0  0
  2 15  2  0  0  0  0
  3 21  1  0  0  0  0
  3 27  1  0  0  0  0
  4 20  1  0  0  0  0
  4 57  1  0  0  0  0
  5 25  1  0  0  0  0
  5 58  1  0  0  0  0
  6 27  2  0  0  0  0
  7  8  1  0  0  0  0
  7  9  1  0  0  0  0
  7 10  1  0  0  0  0
  7 32  1  0  0  0  0
  8  9  1  0  0  0  0
  8 11  1  0  0  0  0
  8 33  1  0  0  0  0
  9 16  1  0  0  0  0
  9 17  1  0  0  0  0
 10 15  1  0  0  0  0
 10 18  1  0  0  0  0
 10 34  1  0  0  0  0
 11 13  1  0  0  0  0
 11 35  1  0  0  0  0
 11 36  1  0  0  0  0
 12 13  1  0  0  0  0
 12 14  1  0  0  0  0
 12 15  1  0  0  0  0
 12 19  1  0  0  0  0
 13 22  1  0  0  0  0
 13 37  1  0  0  0  0
 14 20  1  0  0  0  0
 14 21  1  0  0  0  0
 16 38  1  0  0  0  0
 16 39  1  0  0  0  0
 16 40  1  0  0  0  0
 17 41  1  0  0  0  0
 17 42  1  0  0  0  0
 17 43  1  0  0  0  0
 18 23  2  0  0  0  0
 18 44  1  0  0  0  0
 19 24  2  0  0  0  0
 19 45  1  0  0  0  0
 20 23  1  0  0  0  0
 20 46  1  0  0  0  0
 21 24  1  0  0  0  0
 21 47  1  0  0  0  0
 22 48  1  0  0  0  0
 22 49  1  0  0  0  0
 22 50  1  0  0  0  0
 23 25  1  0  0  0  0
 24 26  1  0  0  0  0
 25 52  1  0  0  0  0
 25 53  1  0  0  0  0
 26 54  1  0  0  0  0
 26 55  1  0  0  0  0
 26 56  1  0  0  0  0
 27 28  1  0  0  0  0
 28 29  1  0  0  0  0
 28 30  2  0  0  0  0
 29 59  1  0  0  0  0
 29 60  1  0  0  0  0
 29 61  1  0  0  0  0
 30 31  1  0  0  0  0
 30 62  1  0  0  0  0
 31 63  1  0  0  0  0
 31 64  1  0  0  0  0
 31 65  1  0  0  0  0
M  END
> <PUBCHEM_COMPOUND_CID>
6918670

> <PUBCHEM_CONFORMER_RMSD>
0.8

> <PUBCHEM_CONFORMER_DIVERSEORDER>
2
3
6
4
1
5

> <PUBCHEM_MMFF94_PARTIAL_CHARGES>
37
1 -0.68
10 0.29
11 0.09
12 0.2
14 0.28
15 0.45
16 0.09
17 0.09
18 -0.29
19 -0.29
2 -0.57
20 0.42
21 0.42
23 -0.28
24 -0.28
25 0.42
26 0.14
27 0.71
28 -0.12
29 0.14
3 -0.43
30 -0.29
31 0.14
32 0.1
33 0.1
4 -0.68
44 0.15
45 0.15
5 -0.68
51 0.4
57 0.4
58 0.4
6 -0.57
62 0.15
7 -0.19
8 -0.19
9 -0.19

> <PUBCHEM_EFFECTIVE_ROTOR_COUNT>
5

> <PUBCHEM_PHARMACOPHORE_FEATURES>
14
1 1 acceptor
1 1 donor
1 2 acceptor
1 29 hydrophobe
1 31 hydrophobe
1 4 acceptor
1 4 donor
1 5 acceptor
1 5 donor
1 6 acceptor
3 9 16 17 hydrophobe
5 12 14 19 21 24 rings
7 10 12 14 15 18 20 23 rings
7 7 8 10 11 12 13 15 rings

> <PUBCHEM_HEAVY_ATOM_COUNT>
31

> <PUBCHEM_ATOM_DEF_STEREO_COUNT>
8

> <PUBCHEM_ATOM_UDEF_STEREO_COUNT>
0

> <PUBCHEM_BOND_DEF_STEREO_COUNT>
1

> <PUBCHEM_BOND_UDEF_STEREO_COUNT>
0

> <PUBCHEM_ISOTOPIC_ATOM_COUNT>
0

> <PUBCHEM_COMPONENT_COUNT>
1

> <PUBCHEM_CACTVS_TAUTO_COUNT>
1

> <PUBCHEM_CONFORMER_ID>
0069920E00000002

> <PUBCHEM_MMFF94_ENERGY>
128.77

> <PUBCHEM_FEATURE_SELFOVERLAP>
71.207

> <PUBCHEM_SHAPE_FINGERPRINT>
10863032 1 17416976208361993524
10948715 1 18272093854593148500
11421498 54 17980458377104380639
11578080 2 18116128048599638741
11640471 11 18343021111938601489
12156800 1 14073980502117209553
12422481 6 17896298286975879584
12633257 1 17979360759435557417
12655364 131 18119495870295721586
12788726 201 17986938842872339911
13134695 92 17974569087471214633
13140716 1 18334847342761361312
133893 2 17825632695626909498
13583140 156 18334298630682535731
13965767 371 18127428756174675241
14178342 30 17896042215976031962
14787075 74 17187268605223959287
14790565 3 18114473331324543236
14955137 171 18193556666924436266
16945 1 18341615850115680615
17974551 9 17823994329007168657
17980427 23 17841421536704682393
20600515 1 17250922151096687187
20691752 17 17895741998178584724
20739085 24 17967812756486908172
22907989 373 17489020591254760941
23419403 2 17389080279420024844
23559900 14 17417809500346809623
238 59 12319155318211160202
3380486 145 17615367448013844634
35225 105 17393629285647318449
392239 28 17831593333045163523
4616759 239 17111823416784819448
469060 322 17972043801979652089
539174 4 18338218436474158256
5845 1 11461235197266574049
5895379 119 16698666116455759001

> <PUBCHEM_SHAPE_MULTIPOLES>
602.75
6.31
4.46
2.79
1.97
1.46
-0.53
-5.14
1.92
-2.22
1.85
1.1
0.59
-2.28

> <PUBCHEM_SHAPE_SELFOVERLAP>
1294.222

> <PUBCHEM_SHAPE_VOLUME>
331.3

> <PUBCHEM_COORDINATE_TYPE>
2
5
10

$$$$
