695679
  -OEChem-07202400573D

 24 26  0     0  0  0  0  0  0999 V2000
    3.9637   -1.0462    0.0001 S   0  0  0  0  0  0  0  0  0  0  0  0
    0.9967   -1.7348   -0.0010 O   0  0  0  0  0  0  0  0  0  0  0  0
    0.2761    0.3859   -0.0010 N   0  0  0  0  0  0  0  0  0  0  0  0
   -0.4024   -1.7988    0.0004 N   0  0  0  0  0  0  0  0  0  0  0  0
   -2.1229   -0.0820    0.0002 C   0  0  0  0  0  0  0  0  0  0  0  0
   -0.7524   -0.5098   -0.0002 C   0  0  0  0  0  0  0  0  0  0  0  0
    1.3130   -0.4132   -0.0014 C   0  0  0  0  0  0  0  0  0  0  0  0
    2.6508    0.0544   -0.0010 C   0  0  0  0  0  0  0  0  0  0  0  0
   -3.1487   -1.0274    0.0011 C   0  0  0  0  0  0  0  0  0  0  0  0
   -2.4289    1.2790   -0.0005 C   0  0  0  0  0  0  0  0  0  0  0  0
    3.0776    1.3653   -0.0002 C   0  0  0  0  0  0  0  0  0  0  0  0
   -4.4802   -0.6119    0.0010 C   0  0  0  0  0  0  0  0  0  0  0  0
   -3.7605    1.6943   -0.0005 C   0  0  0  0  0  0  0  0  0  0  0  0
   -4.7861    0.7489    0.0004 C   0  0  0  0  0  0  0  0  0  0  0  0
    4.4987    1.4665    0.0012 C   0  0  0  0  0  0  0  0  0  0  0  0
    5.1055    0.2298    0.0015 C   0  0  0  0  0  0  0  0  0  0  0  0
   -2.9490   -2.0960    0.0016 H   0  0  0  0  0  0  0  0  0  0  0  0
   -1.6525    2.0400   -0.0012 H   0  0  0  0  0  0  0  0  0  0  0  0
    2.4122    2.2200   -0.0005 H   0  0  0  0  0  0  0  0  0  0  0  0
   -5.2792   -1.3477    0.0016 H   0  0  0  0  0  0  0  0  0  0  0  0
   -3.9992    2.7539   -0.0011 H   0  0  0  0  0  0  0  0  0  0  0  0
    5.0481    2.3989    0.0021 H   0  0  0  0  0  0  0  0  0  0  0  0
   -5.8228    1.0724    0.0004 H   0  0  0  0  0  0  0  0  0  0  0  0
    6.1647    0.0147    0.0024 H   0  0  0  0  0  0  0  0  0  0  0  0
  1  8  1  0  0  0  0
  1 16  1  0  0  0  0
  2  4  1  0  0  0  0
  2  7  1  0  0  0  0
  3  6  1  0  0  0  0
  3  7  2  0  0  0  0
  4  6  2  0  0  0  0
  5  6  1  0  0  0  0
  5  9  2  0  0  0  0
  5 10  1  0  0  0  0
  7  8  1  0  0  0  0
  8 11  2  0  0  0  0
  9 12  1  0  0  0  0
  9 17  1  0  0  0  0
 10 13  2  0  0  0  0
 10 18  1  0  0  0  0
 11 15  1  0  0  0  0
 11 19  1  0  0  0  0
 12 14  2  0  0  0  0
 12 20  1  0  0  0  0
 13 14  1  0  0  0  0
 13 21  1  0  0  0  0
 14 23  1  0  0  0  0
 15 16  2  0  0  0  0
 15 22  1  0  0  0  0
 16 24  1  0  0  0  0
M  END
> <PUBCHEM_COMPOUND_CID>
695679

> <PUBCHEM_CONFORMER_RMSD>
0.6

> <PUBCHEM_CONFORMER_DIVERSEORDER>
1
3
2
4

> <PUBCHEM_MMFF94_PARTIAL_CHARGES>
24
1 -0.08
10 -0.15
11 -0.15
12 -0.15
13 -0.15
14 -0.15
15 -0.15
16 -0.11
17 0.15
18 0.15
19 0.15
2 -0.02
20 0.15
21 0.15
22 0.15
23 0.15
24 0.15
3 -0.57
4 -0.41
5 0.05
6 0.46
7 0.48
8 0.04
9 -0.15

> <PUBCHEM_EFFECTIVE_ROTOR_COUNT>
2

> <PUBCHEM_PHARMACOPHORE_FEATURES>
4
3 3 4 6 cation
5 1 8 11 15 16 rings
5 2 3 4 6 7 rings
6 5 9 10 12 13 14 rings

> <PUBCHEM_HEAVY_ATOM_COUNT>
16

> <PUBCHEM_ATOM_DEF_STEREO_COUNT>
0

> <PUBCHEM_ATOM_UDEF_STEREO_COUNT>
0

> <PUBCHEM_BOND_DEF_STEREO_COUNT>
0

> <PUBCHEM_BOND_UDEF_STEREO_COUNT>
0

> <PUBCHEM_ISOTOPIC_ATOM_COUNT>
0

> <PUBCHEM_COMPONENT_COUNT>
1

> <PUBCHEM_CACTVS_TAUTO_COUNT>
1

> <PUBCHEM_CONFORMER_ID>
000A9D7F00000001

> <PUBCHEM_MMFF94_ENERGY>
24.5247

> <PUBCHEM_FEATURE_SELFOVERLAP>
20.297

> <PUBCHEM_SHAPE_FINGERPRINT>
10014705 185 18260825969670020565
10608611 8 18337670815501609501
12107183 9 17688023115804155144
12346645 44 18409165493877237219
12916748 109 18410862065877611848
13081056 2 18411700984702037236
13167823 11 18410007732489979258
13214271 11 18335421283778699335
13533116 47 17168414970178419603
14251764 18 18260542334667274586
14252887 29 12685087056354440392
14415576 193 18411703162287152374
14943859 89 18202562890751517670
15196674 1 18410856555371436384
15536298 74 18341333310113596374
17834072 33 18342454858944229134
18186145 218 18334853892470319918
200 152 18060698394867657187
20300324 65 18201998846214334701
20645477 56 18411419535426370220
20645477 70 17775012241547239318
21267235 1 18410582785560786499
212847 35 18410012139695974768
21524375 3 18410575093369317898
21652331 79 18408602560871862349
22854114 59 18259985967838564173
23402539 116 18271800246054031165
23402655 69 18202282489553489436
23559900 14 18199748034016884854
245318 6 16810123954103973468
26918003 58 7853577898319755460
2916195 48 18130496539808322480
351380 180 18410854373649388824
3545911 37 18410577279396732908
4214541 1 18410856555376607201
42788 4 18410856568234998916
474 4 17894634794137910604
474229 33 18410575128161904259
495365 180 17346307242128902954
4990 188 18060425702977825862
5104073 3 18409167692610265379
542803 24 17530967985860845652
633830 44 18411134714760112430
6430166 295 18410571782234193920
69090 78 18343018921515953550
7495541 125 17131264787189497827
77779 3 18410856551092078990
9709674 26 18411989061012288174

> <PUBCHEM_SHAPE_MULTIPOLES>
317.29
11.12
1.71
0.61
1.65
0.03
0
3.01
0.01
-0.02
0
0.02
0.01
0

> <PUBCHEM_SHAPE_SELFOVERLAP>
690.443

> <PUBCHEM_SHAPE_VOLUME>
175

> <PUBCHEM_COORDINATE_TYPE>
2
5
10

$$$$
