71230673
  -OEChem-07202400573D

 48 50  0     1  0  0  0  0  0999 V2000
    7.1040   -1.6410    0.8942 Cl  0  0  0  0  0  0  0  0  0  0  0  0
   -1.7326    1.4895   -3.0405 F   0  0  0  0  0  0  0  0  0  0  0  0
   -2.7220   -0.1475   -2.0064 F   0  0  0  0  0  0  0  0  0  0  0  0
   -3.1520    1.9032   -1.4461 F   0  0  0  0  0  0  0  0  0  0  0  0
   -3.5547    0.2725   -0.1176 O   0  0  0  0  0  0  0  0  0  0  0  0
    2.5717    1.7607   -0.7317 O   0  0  0  0  0  0  0  0  0  0  0  0
   -2.1020   -2.2994    0.4873 N   0  0  0  0  0  0  0  0  0  0  0  0
   -2.9004   -2.7557   -0.4897 N   0  0  0  0  0  0  0  0  0  0  0  0
   -0.8261   -3.7156   -0.5811 N   0  0  0  0  0  0  0  0  0  0  0  0
   -2.6260    0.2034    0.9751 C   0  0  1  0  0  0  0  0  0  0  0  0
   -3.1488    1.1867    2.0897 C   0  0  0  0  0  0  0  0  0  0  0  0
   -2.6006   -1.2723    1.4855 C   0  0  0  0  0  0  0  0  0  0  0  0
   -1.2283    0.6289    0.4966 C   0  0  0  0  0  0  0  0  0  0  0  0
   -4.5355    0.7805    2.6206 C   0  0  0  0  0  0  0  0  0  0  0  0
   -3.2310    2.6522    1.6331 C   0  0  0  0  0  0  0  0  0  0  0  0
   -1.0130    1.0342   -0.8207 C   0  0  0  0  0  0  0  0  0  0  0  0
   -0.1669    0.6046    1.4013 C   0  0  0  0  0  0  0  0  0  0  0  0
    0.2640    1.4148   -1.2333 C   0  0  0  0  0  0  0  0  0  0  0  0
   -2.1340    1.0683   -1.8068 C   0  0  0  0  0  0  0  0  0  0  0  0
    1.1101    0.9850    0.9886 C   0  0  0  0  0  0  0  0  0  0  0  0
    1.3255    1.3902   -0.3288 C   0  0  0  0  0  0  0  0  0  0  0  0
   -0.8712   -2.8749    0.4262 C   0  0  0  0  0  0  0  0  0  0  0  0
   -2.0814   -3.6092   -1.1078 C   0  0  0  0  0  0  0  0  0  0  0  0
    3.6362    0.9616   -0.3493 C   0  0  0  0  0  0  0  0  0  0  0  0
    3.5414   -0.4258   -0.4587 C   0  0  0  0  0  0  0  0  0  0  0  0
    4.8032    1.5443    0.1450 C   0  0  0  0  0  0  0  0  0  0  0  0
    4.6139   -1.2306   -0.0743 C   0  0  0  0  0  0  0  0  0  0  0  0
    5.8756    0.7394    0.5297 C   0  0  0  0  0  0  0  0  0  0  0  0
    5.7810   -0.6480    0.4200 C   0  0  0  0  0  0  0  0  0  0  0  0
   -2.4606    1.1518    2.9444 H   0  0  0  0  0  0  0  0  0  0  0  0
   -3.6057   -1.6386    1.7244 H   0  0  0  0  0  0  0  0  0  0  0  0
   -1.9666   -1.4016    2.3698 H   0  0  0  0  0  0  0  0  0  0  0  0
   -4.5145   -0.2029    3.0981 H   0  0  0  0  0  0  0  0  0  0  0  0
   -4.8727    1.4897    3.3854 H   0  0  0  0  0  0  0  0  0  0  0  0
   -5.2918    0.7701    1.8298 H   0  0  0  0  0  0  0  0  0  0  0  0
   -2.2578    3.0305    1.3072 H   0  0  0  0  0  0  0  0  0  0  0  0
   -3.5640    3.2933    2.4571 H   0  0  0  0  0  0  0  0  0  0  0  0
   -3.9417    2.7764    0.8098 H   0  0  0  0  0  0  0  0  0  0  0  0
   -0.3098    0.2980    2.4334 H   0  0  0  0  0  0  0  0  0  0  0  0
   -4.3564   -0.2198    0.1249 H   0  0  0  0  0  0  0  0  0  0  0  0
    0.4498    1.7327   -2.2560 H   0  0  0  0  0  0  0  0  0  0  0  0
    1.9134    0.9778    1.7206 H   0  0  0  0  0  0  0  0  0  0  0  0
   -0.0704   -2.6543    1.1176 H   0  0  0  0  0  0  0  0  0  0  0  0
   -2.4097   -4.1711   -1.9694 H   0  0  0  0  0  0  0  0  0  0  0  0
    2.6525   -0.9048   -0.8606 H   0  0  0  0  0  0  0  0  0  0  0  0
    4.8820    2.6244    0.2327 H   0  0  0  0  0  0  0  0  0  0  0  0
    4.5278   -2.3100   -0.1695 H   0  0  0  0  0  0  0  0  0  0  0  0
    6.7787    1.2072    0.9132 H   0  0  0  0  0  0  0  0  0  0  0  0
  1 29  1  0  0  0  0
  2 19  1  0  0  0  0
  3 19  1  0  0  0  0
  4 19  1  0  0  0  0
  5 10  1  0  0  0  0
  5 40  1  0  0  0  0
  6 21  1  0  0  0  0
  6 24  1  0  0  0  0
  7  8  1  0  0  0  0
  7 12  1  0  0  0  0
  7 22  1  0  0  0  0
  8 23  2  0  0  0  0
  9 22  2  0  0  0  0
  9 23  1  0  0  0  0
 10 11  1  0  0  0  0
 10 12  1  0  0  0  0
 10 13  1  0  0  0  0
 11 14  1  0  0  0  0
 11 15  1  0  0  0  0
 11 30  1  0  0  0  0
 12 31  1  0  0  0  0
 12 32  1  0  0  0  0
 13 16  2  0  0  0  0
 13 17  1  0  0  0  0
 14 33  1  0  0  0  0
 14 34  1  0  0  0  0
 14 35  1  0  0  0  0
 15 36  1  0  0  0  0
 15 37  1  0  0  0  0
 15 38  1  0  0  0  0
 16 18  1  0  0  0  0
 16 19  1  0  0  0  0
 17 20  2  0  0  0  0
 17 39  1  0  0  0  0
 18 21  2  0  0  0  0
 18 41  1  0  0  0  0
 20 21  1  0  0  0  0
 20 42  1  0  0  0  0
 22 43  1  0  0  0  0
 23 44  1  0  0  0  0
 24 25  2  0  0  0  0
 24 26  1  0  0  0  0
 25 27  1  0  0  0  0
 25 45  1  0  0  0  0
 26 28  2  0  0  0  0
 26 46  1  0  0  0  0
 27 29  2  0  0  0  0
 27 47  1  0  0  0  0
 28 29  1  0  0  0  0
 28 48  1  0  0  0  0
M  END
> <PUBCHEM_COMPOUND_CID>
71230673

> <PUBCHEM_CONFORMER_RMSD>
0.8

> <PUBCHEM_CONFORMER_DIVERSEORDER>
2
33
30
78
8
102
40
35
111
48
94
86
45
117
97
100
112
1
120
36
63
87
27
55
116
93
7
84
42
51
18
115
72
74
71
46
108
113
75
22
99
61
106
28
44
89
15
10
118
114
54
62
91
23
110
92
57
13
73
119
80
83
29
9
96
24
88
105
81
58
39
20
70
98
38
19
37
3
104
43
41
103
101
32
60
64
109
14
107
77
65
90
4
82
31
52
11
59
12
17
26
25
95
85
50
67
34
47
66
69
5
49
68
6
79
76
56
16
53
21

> <PUBCHEM_MMFF94_PARTIAL_CHARGES>
36
1 -0.18
10 0.42
12 0.26
13 -0.14
16 -0.14
17 -0.15
18 -0.15
19 1.16
2 -0.34
20 -0.15
21 0.08
22 0.04
23 0.37
24 0.08
25 -0.15
26 -0.15
27 -0.15
28 -0.15
29 0.18
3 -0.34
39 0.15
4 -0.34
40 0.4
41 0.15
42 0.15
43 0.15
44 0.15
45 0.15
46 0.15
47 0.15
48 0.15
5 -0.68
6 -0.17
7 0.31
8 -0.71
9 -0.57

> <PUBCHEM_EFFECTIVE_ROTOR_COUNT>
7

> <PUBCHEM_PHARMACOPHORE_FEATURES>
9
1 5 acceptor
1 5 donor
1 6 acceptor
3 11 14 15 hydrophobe
3 7 9 22 cation
3 8 9 23 cation
5 7 8 9 22 23 rings
6 13 16 17 18 20 21 rings
6 24 25 26 27 28 29 rings

> <PUBCHEM_HEAVY_ATOM_COUNT>
29

> <PUBCHEM_ATOM_DEF_STEREO_COUNT>
0

> <PUBCHEM_ATOM_UDEF_STEREO_COUNT>
1

> <PUBCHEM_BOND_DEF_STEREO_COUNT>
0

> <PUBCHEM_BOND_UDEF_STEREO_COUNT>
0

> <PUBCHEM_ISOTOPIC_ATOM_COUNT>
0

> <PUBCHEM_COMPONENT_COUNT>
1

> <PUBCHEM_CACTVS_TAUTO_COUNT>
1

> <PUBCHEM_CONFORMER_ID>
043EE4D100000002

> <PUBCHEM_MMFF94_ENERGY>
94.6799

> <PUBCHEM_FEATURE_SELFOVERLAP>
48.419

> <PUBCHEM_SHAPE_FINGERPRINT>
11036077 4 18343586239292807562
11552529 35 18127975419590393630
12082328 90 15864357901202809626
12422481 6 18116740485276721915
12633257 1 18340780290287931180
12969540 37 16829800921235835975
13004483 165 17628079215496287303
13583140 156 17346605209331786968
14251751 93 18040427798355736074
15064986 96 18121513349383583459
15537594 2 18113628872134626682
16114785 44 18199178495278163880
16994733 274 15266236726507837891
17780758 139 18343302561599020560
1813 80 17023485129949322764
19141452 34 18409454704063557424
20602899 9 18339909485921816743
20775530 9 17549260788678433558
23559900 14 18055905730624354568
32027 91 18267291042676468442
3633792 109 18340759352602341085
394222 165 11883789293175241099
4340502 62 18057909994851571105
44062 13 18186513302995240382
484985 159 18272082829306988071
5104073 3 18200867466356419520
5924683 9 18201440341051223274

> <PUBCHEM_SHAPE_MULTIPOLES>
550.17
11.79
3.4
2.06
23.34
3.94
0.53
0.48
-4.77
-2.72
0.4
-2.96
-0.95
-1.26

> <PUBCHEM_SHAPE_SELFOVERLAP>
1184.305

> <PUBCHEM_SHAPE_VOLUME>
307.8

> <PUBCHEM_COORDINATE_TYPE>
2
5
10

$$$$
