71230671
  -OEChem-07202400543D

 42 44  0     1  0  0  0  0  0999 V2000
   -6.6674   -1.8317   -0.5286 Cl  0  0  0  0  0  0  0  0  0  0  0  0
    1.9980    3.3934   -1.5439 F   0  0  0  0  0  0  0  0  0  0  0  0
    3.4274    2.7614   -0.0323 F   0  0  0  0  0  0  0  0  0  0  0  0
    3.0580    1.5076   -1.7630 F   0  0  0  0  0  0  0  0  0  0  0  0
    3.9693    0.9506    0.7326 O   0  0  0  0  0  0  0  0  0  0  0  0
   -2.2760    1.9950    0.3821 O   0  0  0  0  0  0  0  0  0  0  0  0
    2.4504   -2.3403   -0.3842 N   0  0  0  0  0  0  0  0  0  0  0  0
    1.2117   -2.3054   -0.8983 N   0  0  0  0  0  0  0  0  0  0  0  0
    1.7423   -4.3910   -0.1224 N   0  0  0  0  0  0  0  0  0  0  0  0
    2.9573   -0.0830    0.7717 C   0  0  1  0  0  0  0  0  0  0  0  0
    1.5787    0.4797    0.6564 C   0  0  0  0  0  0  0  0  0  0  0  0
    3.3192   -1.1005   -0.3628 C   0  0  0  0  0  0  0  0  0  0  0  0
    3.1744   -0.7846    2.1398 C   0  0  0  0  0  0  0  0  0  0  0  0
    1.3290    1.6158   -0.1136 C   0  0  0  0  0  0  0  0  0  0  0  0
    0.5329   -0.1475    1.3337 C   0  0  0  0  0  0  0  0  0  0  0  0
    0.0335    2.1247   -0.2060 C   0  0  0  0  0  0  0  0  0  0  0  0
   -0.7625    0.3616    1.2416 C   0  0  0  0  0  0  0  0  0  0  0  0
   -1.0122    1.4977    0.4716 C   0  0  0  0  0  0  0  0  0  0  0  0
    2.4327    2.3039   -0.8475 C   0  0  0  0  0  0  0  0  0  0  0  0
    2.7580   -3.5830    0.0749 C   0  0  0  0  0  0  0  0  0  0  0  0
    0.8263   -3.5702   -0.7161 C   0  0  0  0  0  0  0  0  0  0  0  0
   -3.3078    1.0964    0.1678 C   0  0  0  0  0  0  0  0  0  0  0  0
   -3.1701    0.0916   -0.7900 C   0  0  0  0  0  0  0  0  0  0  0  0
   -4.4846    1.1959    0.9101 C   0  0  0  0  0  0  0  0  0  0  0  0
   -4.2089   -0.8139   -1.0053 C   0  0  0  0  0  0  0  0  0  0  0  0
   -5.5237    0.2905    0.6946 C   0  0  0  0  0  0  0  0  0  0  0  0
   -5.3858   -0.7145   -0.2629 C   0  0  0  0  0  0  0  0  0  0  0  0
    3.2200   -0.6762   -1.3660 H   0  0  0  0  0  0  0  0  0  0  0  0
    4.3495   -1.4640   -0.2636 H   0  0  0  0  0  0  0  0  0  0  0  0
    2.9515   -0.0992    2.9672 H   0  0  0  0  0  0  0  0  0  0  0  0
    2.5911   -1.6980    2.2812 H   0  0  0  0  0  0  0  0  0  0  0  0
    4.2294   -1.0624    2.2608 H   0  0  0  0  0  0  0  0  0  0  0  0
    0.6632   -1.0408    1.9335 H   0  0  0  0  0  0  0  0  0  0  0  0
   -0.1791    3.0087   -0.8015 H   0  0  0  0  0  0  0  0  0  0  0  0
    4.8423    0.5240    0.7693 H   0  0  0  0  0  0  0  0  0  0  0  0
   -1.5545   -0.1361    1.7950 H   0  0  0  0  0  0  0  0  0  0  0  0
    3.7049   -3.8362    0.5301 H   0  0  0  0  0  0  0  0  0  0  0  0
   -0.1530   -3.9039   -1.0250 H   0  0  0  0  0  0  0  0  0  0  0  0
   -2.2730    0.0045   -1.3972 H   0  0  0  0  0  0  0  0  0  0  0  0
   -4.5969    1.9764    1.6575 H   0  0  0  0  0  0  0  0  0  0  0  0
   -4.0894   -1.5892   -1.7578 H   0  0  0  0  0  0  0  0  0  0  0  0
   -6.4349    0.3799    1.2805 H   0  0  0  0  0  0  0  0  0  0  0  0
  1 27  1  0  0  0  0
  2 19  1  0  0  0  0
  3 19  1  0  0  0  0
  4 19  1  0  0  0  0
  5 10  1  0  0  0  0
  5 35  1  0  0  0  0
  6 18  1  0  0  0  0
  6 22  1  0  0  0  0
  7  8  1  0  0  0  0
  7 12  1  0  0  0  0
  7 20  1  0  0  0  0
  8 21  2  0  0  0  0
  9 20  2  0  0  0  0
  9 21  1  0  0  0  0
 10 11  1  0  0  0  0
 10 12  1  0  0  0  0
 10 13  1  0  0  0  0
 11 14  2  0  0  0  0
 11 15  1  0  0  0  0
 12 28  1  0  0  0  0
 12 29  1  0  0  0  0
 13 30  1  0  0  0  0
 13 31  1  0  0  0  0
 13 32  1  0  0  0  0
 14 16  1  0  0  0  0
 14 19  1  0  0  0  0
 15 17  2  0  0  0  0
 15 33  1  0  0  0  0
 16 18  2  0  0  0  0
 16 34  1  0  0  0  0
 17 18  1  0  0  0  0
 17 36  1  0  0  0  0
 20 37  1  0  0  0  0
 21 38  1  0  0  0  0
 22 23  2  0  0  0  0
 22 24  1  0  0  0  0
 23 25  1  0  0  0  0
 23 39  1  0  0  0  0
 24 26  2  0  0  0  0
 24 40  1  0  0  0  0
 25 27  2  0  0  0  0
 25 41  1  0  0  0  0
 26 27  1  0  0  0  0
 26 42  1  0  0  0  0
M  END
> <PUBCHEM_COMPOUND_CID>
71230671

> <PUBCHEM_CONFORMER_RMSD>
0.8

> <PUBCHEM_CONFORMER_DIVERSEORDER>
3
91
59
86
36
70
57
73
96
48
109
110
45
41
63
71
9
76
21
104
65
97
35
2
47
101
66
106
107
102
78
24
100
103
98
56
88
95
42
13
61
6
12
99
75
52
51
92
80
39
94
72
58
93
87
74
4
37
67
112
105
90
1
53
83
5
34
46
8
77
54
111
84
69
18
81
11
43
25
33
7
17
64
89
27
10
79
68
23
38
16
32
26
19
15
82
60
55
108
50
14
49
85
40
22
29
20
28
30
62
44
31

> <PUBCHEM_MMFF94_PARTIAL_CHARGES>
36
1 -0.18
10 0.42
11 -0.14
12 0.26
14 -0.14
15 -0.15
16 -0.15
17 -0.15
18 0.08
19 1.16
2 -0.34
20 0.04
21 0.37
22 0.08
23 -0.15
24 -0.15
25 -0.15
26 -0.15
27 0.18
3 -0.34
33 0.15
34 0.15
35 0.4
36 0.15
37 0.15
38 0.15
39 0.15
4 -0.34
40 0.15
41 0.15
42 0.15
5 -0.68
6 -0.17
7 0.31
8 -0.71
9 -0.57

> <PUBCHEM_EFFECTIVE_ROTOR_COUNT>
6

> <PUBCHEM_PHARMACOPHORE_FEATURES>
8
1 5 acceptor
1 5 donor
1 6 acceptor
3 7 9 20 cation
3 8 9 21 cation
5 7 8 9 20 21 rings
6 11 14 15 16 17 18 rings
6 22 23 24 25 26 27 rings

> <PUBCHEM_HEAVY_ATOM_COUNT>
27

> <PUBCHEM_ATOM_DEF_STEREO_COUNT>
0

> <PUBCHEM_ATOM_UDEF_STEREO_COUNT>
1

> <PUBCHEM_BOND_DEF_STEREO_COUNT>
0

> <PUBCHEM_BOND_UDEF_STEREO_COUNT>
0

> <PUBCHEM_ISOTOPIC_ATOM_COUNT>
0

> <PUBCHEM_COMPONENT_COUNT>
1

> <PUBCHEM_CACTVS_TAUTO_COUNT>
1

> <PUBCHEM_CONFORMER_ID>
043EE4CF00000003

> <PUBCHEM_MMFF94_ENERGY>
86.4125

> <PUBCHEM_FEATURE_SELFOVERLAP>
43.345

> <PUBCHEM_SHAPE_FINGERPRINT>
11089746 13 8790881878648767609
11315621 136 18410299120351526927
11796584 16 17631740357283012925
12107183 9 17838910235457700361
12236239 1 18411699928726015265
12293681 25 17970652734343480995
12422481 6 17911768337952953778
12596602 18 16630525168083701291
13150687 139 18119547650685920228
13533116 47 18272367599398879003
13583140 156 17344884378887113385
1361 2 18409731806499810025
13836976 161 18335419122893236732
13899415 180 17899128317845994074
14863182 85 18411416224391687464
15250474 111 18343016731789462367
15537594 2 17917429891286532439
15799311 1 18267887106621890155
17138139 8 17557409174925268103
17349148 13 18408601448496302313
17492 54 18117303444299995830
17492 89 18339641131875289067
17818456 19 17699579039343190617
17974551 9 14039834665794618211
1813 80 18116716214173730697
18681886 176 18339639040310891600
19141452 34 17621040858897994785
19301679 30 18411146832001921667
19319366 153 18271236252772190999
20645477 70 18333449863382380705
20764821 26 18338801225425611747
20775530 9 17909547259644613007
21054139 6 18271804695745683789
21304303 282 16526682041285175348
21475661 188 8574129666496953571
22149856 69 18270974535409822883
23559900 14 18268707204213269945
238 59 18335154101994168346
25222932 49 16772932835780635775
3004659 81 18335134298190259681
3060560 45 18336837454755378908
338550 245 18342174479448170031
404807 78 17609507377661509051
4280585 95 17903347113559785898
4340502 62 17774708819445570362
46194498 28 18040991860932475989
463206 1 18201151148377244119
7164475 11 18338237064001178209
9709674 26 18334863775395829099

> <PUBCHEM_SHAPE_MULTIPOLES>
509.01
10.9
4.23
1.34
19.36
3.49
0.17
2.94
-0.13
-4.58
-1.47
-0.78
-0.31
-1.36

> <PUBCHEM_SHAPE_SELFOVERLAP>
1103.521

> <PUBCHEM_SHAPE_VOLUME>
281.8

> <PUBCHEM_COORDINATE_TYPE>
2
5
10

$$$$
