72734664
  -OEChem-07202400513D

 35 36  0     0  0  0  0  0  0999 V2000
   -2.1177    1.8904    2.3115 Cl  0  0  0  0  0  0  0  0  0  0  0  0
    1.2027    1.6119    0.5846 F   0  0  0  0  0  0  0  0  0  0  0  0
    3.1031   -2.6548   -0.2774 F   0  0  0  0  0  0  0  0  0  0  0  0
    5.4253   -1.4634   -1.0391 F   0  0  0  0  0  0  0  0  0  0  0  0
    3.5282    2.7984   -0.1785 F   0  0  0  0  0  0  0  0  0  0  0  0
   -6.0396    1.6502   -1.0851 F   0  0  0  0  0  0  0  0  0  0  0  0
   -5.3751    0.1817   -2.5446 F   0  0  0  0  0  0  0  0  0  0  0  0
   -6.7198   -0.4106   -0.9495 F   0  0  0  0  0  0  0  0  0  0  0  0
    5.6678    1.2780   -0.9990 O   0  0  0  0  0  0  0  0  0  0  0  0
    0.5419   -2.2691    0.0896 O   0  0  0  0  0  0  0  0  0  0  0  0
    0.1098   -0.5078    1.5347 N   0  0  0  0  0  0  0  0  0  0  0  0
   -2.8251   -1.5696    0.4294 N   0  0  0  0  0  0  0  0  0  0  0  0
   -1.1360   -1.0214    2.0574 C   0  0  0  0  0  0  0  0  0  0  0  0
   -2.3111   -0.6023    1.2220 C   0  0  0  0  0  0  0  0  0  0  0  0
    2.1213   -0.5376    0.1656 C   0  0  0  0  0  0  0  0  0  0  0  0
    0.8779   -1.1733    0.5724 C   0  0  0  0  0  0  0  0  0  0  0  0
   -2.8043    0.6909    1.2868 C   0  0  0  0  0  0  0  0  0  0  0  0
   -4.4514    0.0444   -0.3421 C   0  0  0  0  0  0  0  0  0  0  0  0
    2.2340    0.8526    0.1889 C   0  0  0  0  0  0  0  0  0  0  0  0
    3.2003   -1.3180   -0.2496 C   0  0  0  0  0  0  0  0  0  0  0  0
   -3.8949    1.0123    0.4866 C   0  0  0  0  0  0  0  0  0  0  0  0
    4.5052    0.6819   -0.6174 C   0  0  0  0  0  0  0  0  0  0  0  0
    4.3924   -0.7083   -0.6410 C   0  0  0  0  0  0  0  0  0  0  0  0
    3.4262    1.4624   -0.2024 C   0  0  0  0  0  0  0  0  0  0  0  0
   -3.8846   -1.2200   -0.3341 C   0  0  0  0  0  0  0  0  0  0  0  0
   -5.6180    0.3564   -1.2102 C   0  0  0  0  0  0  0  0  0  0  0  0
    6.8415    0.9445   -0.2593 C   0  0  0  0  0  0  0  0  0  0  0  0
   -1.2417   -0.6866    3.0946 H   0  0  0  0  0  0  0  0  0  0  0  0
   -1.0749   -2.1160    2.0882 H   0  0  0  0  0  0  0  0  0  0  0  0
    0.4343    0.3776    1.9111 H   0  0  0  0  0  0  0  0  0  0  0  0
   -4.3087    2.0174    0.5112 H   0  0  0  0  0  0  0  0  0  0  0  0
   -4.2758   -2.0161   -0.9600 H   0  0  0  0  0  0  0  0  0  0  0  0
    7.5651    1.7542   -0.3900 H   0  0  0  0  0  0  0  0  0  0  0  0
    7.2856    0.0233   -0.6469 H   0  0  0  0  0  0  0  0  0  0  0  0
    6.6265    0.8436    0.8101 H   0  0  0  0  0  0  0  0  0  0  0  0
  1 17  1  0  0  0  0
  2 19  1  0  0  0  0
  3 20  1  0  0  0  0
  4 23  1  0  0  0  0
  5 24  1  0  0  0  0
  6 26  1  0  0  0  0
  7 26  1  0  0  0  0
  8 26  1  0  0  0  0
  9 22  1  0  0  0  0
  9 27  1  0  0  0  0
 10 16  2  0  0  0  0
 11 13  1  0  0  0  0
 11 16  1  0  0  0  0
 11 30  1  0  0  0  0
 12 14  1  0  0  0  0
 12 25  2  0  0  0  0
 13 14  1  0  0  0  0
 13 28  1  0  0  0  0
 13 29  1  0  0  0  0
 14 17  2  0  0  0  0
 15 16  1  0  0  0  0
 15 19  2  0  0  0  0
 15 20  1  0  0  0  0
 17 21  1  0  0  0  0
 18 21  2  0  0  0  0
 18 25  1  0  0  0  0
 18 26  1  0  0  0  0
 19 24  1  0  0  0  0
 20 23  2  0  0  0  0
 21 31  1  0  0  0  0
 22 23  1  0  0  0  0
 22 24  2  0  0  0  0
 25 32  1  0  0  0  0
 27 33  1  0  0  0  0
 27 34  1  0  0  0  0
 27 35  1  0  0  0  0
M  END
> <PUBCHEM_COMPOUND_CID>
72734664

> <PUBCHEM_CONFORMER_RMSD>
0.8

> <PUBCHEM_CONFORMER_DIVERSEORDER>
1
22
11
6
12
35
31
32
20
27
17
28
25
15
26
3
34
16
23
7
18
29
24
21
14
30
33
13
2
10
36
19
9
8
4
5

> <PUBCHEM_MMFF94_PARTIAL_CHARGES>
30
1 -0.18
10 -0.57
11 -0.73
12 -0.62
13 0.44
14 0.17
15 0.09
16 0.54
17 0.18
18 -0.14
19 0.19
2 -0.19
20 0.19
21 -0.15
22 0.08
23 0.19
24 0.19
25 0.16
26 1.16
27 0.28
3 -0.19
30 0.37
31 0.15
32 0.15
4 -0.19
5 -0.19
6 -0.34
7 -0.34
8 -0.34
9 -0.36

> <PUBCHEM_EFFECTIVE_ROTOR_COUNT>
6

> <PUBCHEM_PHARMACOPHORE_FEATURES>
6
1 10 acceptor
1 11 donor
1 12 acceptor
1 9 acceptor
6 12 14 17 18 21 25 rings
6 15 19 20 22 23 24 rings

> <PUBCHEM_HEAVY_ATOM_COUNT>
27

> <PUBCHEM_ATOM_DEF_STEREO_COUNT>
0

> <PUBCHEM_ATOM_UDEF_STEREO_COUNT>
0

> <PUBCHEM_BOND_DEF_STEREO_COUNT>
0

> <PUBCHEM_BOND_UDEF_STEREO_COUNT>
0

> <PUBCHEM_ISOTOPIC_ATOM_COUNT>
0

> <PUBCHEM_COMPONENT_COUNT>
1

> <PUBCHEM_CACTVS_TAUTO_COUNT>
2

> <PUBCHEM_CONFORMER_ID>
0455D7C800000001

> <PUBCHEM_MMFF94_ENERGY>
61.3476

> <PUBCHEM_FEATURE_SELFOVERLAP>
30.447

> <PUBCHEM_SHAPE_FINGERPRINT>
10498660 4 18040152933354805993
105312 117 17022904562303719715
10692045 39 14924488750791359073
11069576 57 17702381749884651310
12236239 1 17632582621475095962
12403259 415 17822021921031894971
12788726 201 17417540095019413849
12892183 10 9007066776960368619
13103583 49 11963395158421567521
13402501 40 17749104499984421461
14681490 219 18409726236518863413
14931854 50 18343867697205706429
15003188 100 18260829344976245109
15064986 96 12180658630575251585
15183329 4 18408886209070005995
15238133 3 14201401573019445918
15475509 84 11891317751884997158
15510800 12 13973101238582987877
1813 80 13398636064669521411
18335252 98 18261399988028821339
18608769 82 17895765114193978715
193927 3 13973961039232014947
200 152 17988932170931074883
20775438 99 16839903071311315783
21033648 144 18261402143162964939
21033648 29 16877671149100277947
21150785 3 16630808833477518300
221357 26 18411134719245054973
22289505 5 18334295353664595926
22393880 68 18336260244977986211
23559900 14 18271522099756388793
2838139 119 17385432233336452069
3004659 81 18130782331042412411
312425 54 10375875212448768493
3388396 114 17844535602406109320
4028521 119 18113337509752453123
4098825 35 18410294710057930035
59682541 52 18339632344309093303
999808 66 11600013158306569948

> <PUBCHEM_SHAPE_MULTIPOLES>
484.9
15.63
2.19
1.65
0.77
0.06
-0.2
3.29
9.67
-1.54
-0.26
2.56
0.32
-0.27

> <PUBCHEM_SHAPE_SELFOVERLAP>
1043.908

> <PUBCHEM_SHAPE_VOLUME>
271.2

> <PUBCHEM_COORDINATE_TYPE>
2
5
10

$$$$
