7617
  -OEChem-07192423373D

 25 24  0     0  0  0  0  0  0999 V2000
   -0.0065    0.0003    0.3607 N   0  0  0  0  0  0  0  0  0  0  0  0
   -1.2010   -0.6926   -0.1206 C   0  0  0  0  0  0  0  0  0  0  0  0
   -0.0084    1.3928   -0.0859 C   0  0  0  0  0  0  0  0  0  0  0  0
    1.2015   -0.6829   -0.1008 C   0  0  0  0  0  0  0  0  0  0  0  0
   -2.4544   -0.0489    0.3872 C   0  0  0  0  0  0  0  0  0  0  0  0
    1.2055    2.1277    0.3935 C   0  0  0  0  0  0  0  0  0  0  0  0
    1.2591   -2.0956    0.3934 C   0  0  0  0  0  0  0  0  0  0  0  0
   -3.3963    0.4799   -0.4022 C   0  0  0  0  0  0  0  0  0  0  0  0
    2.1106    2.6864   -0.4181 C   0  0  0  0  0  0  0  0  0  0  0  0
    1.2900   -3.1672   -0.4071 C   0  0  0  0  0  0  0  0  0  0  0  0
   -1.2377   -1.7242    0.2484 H   0  0  0  0  0  0  0  0  0  0  0  0
   -1.2099   -0.7473   -1.2179 H   0  0  0  0  0  0  0  0  0  0  0  0
   -0.8643    1.9387    0.3283 H   0  0  0  0  0  0  0  0  0  0  0  0
   -0.0882    1.4551   -1.1799 H   0  0  0  0  0  0  0  0  0  0  0  0
    2.1059   -0.2066    0.2951 H   0  0  0  0  0  0  0  0  0  0  0  0
    1.2780   -0.6514   -1.1964 H   0  0  0  0  0  0  0  0  0  0  0  0
   -2.6050   -0.0217    1.4639 H   0  0  0  0  0  0  0  0  0  0  0  0
    1.3474    2.2170    1.4680 H   0  0  0  0  0  0  0  0  0  0  0  0
    1.2863   -2.2513    1.4693 H   0  0  0  0  0  0  0  0  0  0  0  0
   -4.2848    0.9287    0.0280 H   0  0  0  0  0  0  0  0  0  0  0  0
   -3.2989    0.4769   -1.4822 H   0  0  0  0  0  0  0  0  0  0  0  0
    2.9671    3.2099   -0.0076 H   0  0  0  0  0  0  0  0  0  0  0  0
    2.0164    2.6311   -1.4969 H   0  0  0  0  0  0  0  0  0  0  0  0
    1.3357   -4.1657    0.0137 H   0  0  0  0  0  0  0  0  0  0  0  0
    1.2686   -3.0698   -1.4868 H   0  0  0  0  0  0  0  0  0  0  0  0
  1  2  1  0  0  0  0
  1  3  1  0  0  0  0
  1  4  1  0  0  0  0
  2  5  1  0  0  0  0
  2 11  1  0  0  0  0
  2 12  1  0  0  0  0
  3  6  1  0  0  0  0
  3 13  1  0  0  0  0
  3 14  1  0  0  0  0
  4  7  1  0  0  0  0
  4 15  1  0  0  0  0
  4 16  1  0  0  0  0
  5  8  2  0  0  0  0
  5 17  1  0  0  0  0
  6  9  2  0  0  0  0
  6 18  1  0  0  0  0
  7 10  2  0  0  0  0
  7 19  1  0  0  0  0
  8 20  1  0  0  0  0
  8 21  1  0  0  0  0
  9 22  1  0  0  0  0
  9 23  1  0  0  0  0
 10 24  1  0  0  0  0
 10 25  1  0  0  0  0
M  END
> <PUBCHEM_COMPOUND_CID>
7617

> <PUBCHEM_CONFORMER_RMSD>
0.6

> <PUBCHEM_CONFORMER_DIVERSEORDER>
1
28
22
16
12
26
29
2
6
24
13
23
11
27
21
18
17
25
7
20
10
3
19
8
14
9
15
5
4

> <PUBCHEM_MMFF94_PARTIAL_CHARGES>
19
1 -0.81
10 -0.3
17 0.15
18 0.15
19 0.15
2 0.41
20 0.15
21 0.15
22 0.15
23 0.15
24 0.15
25 0.15
3 0.41
4 0.41
5 -0.29
6 -0.29
7 -0.29
8 -0.3
9 -0.3

> <PUBCHEM_EFFECTIVE_ROTOR_COUNT>
6

> <PUBCHEM_PHARMACOPHORE_FEATURES>
4
1 1 cation
1 10 hydrophobe
1 8 hydrophobe
1 9 hydrophobe

> <PUBCHEM_HEAVY_ATOM_COUNT>
10

> <PUBCHEM_ATOM_DEF_STEREO_COUNT>
0

> <PUBCHEM_ATOM_UDEF_STEREO_COUNT>
0

> <PUBCHEM_BOND_DEF_STEREO_COUNT>
0

> <PUBCHEM_BOND_UDEF_STEREO_COUNT>
0

> <PUBCHEM_ISOTOPIC_ATOM_COUNT>
0

> <PUBCHEM_COMPONENT_COUNT>
1

> <PUBCHEM_CACTVS_TAUTO_COUNT>
1

> <PUBCHEM_CONFORMER_ID>
00001DC100000001

> <PUBCHEM_MMFF94_ENERGY>
17.8773

> <PUBCHEM_FEATURE_SELFOVERLAP>
20.297

> <PUBCHEM_SHAPE_FINGERPRINT>
1 1 18337952401783466596
14648413 74 18335420149706795233
19021347 4 18050567648857586954
20645477 70 18409438199206196727
20711985 344 17328022066673463155
20871998 184 17326908772394952755
21040471 1 17906169907900520152
21524375 3 17972869543169043289
23526114 1 18338516468422934685
23530152 11 18123188162905802727
23552423 10 18413666924736020823
23552449 1 17617936933346016970
23595355 12 18340484594637599738
2748010 2 18192440889785309974
305870 269 18265046006275529817
7364860 26 18411981351671890657
81228 2 17474106501411904274

> <PUBCHEM_SHAPE_MULTIPOLES>
200.81
3.64
3.61
0.72
3.96
1.02
-0.01
-1.01
-0.38
-3.93
-0.38
0
0
-0.01

> <PUBCHEM_SHAPE_SELFOVERLAP>
369.315

> <PUBCHEM_SHAPE_VOLUME>
127.8

> <PUBCHEM_COORDINATE_TYPE>
2
5
10

$$$$
