8331
  -OEChem-07192423473D

 36 37  0     1  0  0  0  0  0999 V2000
   -4.3863    3.3306   -0.5210 Cl  0  0  0  0  0  0  0  0  0  0  0  0
    5.3631    2.0587   -0.5131 Cl  0  0  0  0  0  0  0  0  0  0  0  0
   -2.2177   -2.5843   -0.9251 O   0  5  0  0  0  0  0  0  0  0  0  0
   -1.8092   -2.5838    1.2400 O   0  0  0  0  0  0  0  0  0  0  0  0
   -1.4941   -2.3989    0.0594 N   0  3  0  0  0  0  0  0  0  0  0  0
    0.0628   -0.5610    0.5211 C   0  0  0  0  0  0  0  0  0  0  0  0
   -0.1045   -1.9294   -0.2000 C   0  0  1  0  0  0  0  0  0  0  0  0
    0.8351   -3.0243    0.3315 C   0  0  0  0  0  0  0  0  0  0  0  0
   -1.0711    0.4315    0.2556 C   0  0  0  0  0  0  0  0  0  0  0  0
    1.4118    0.1055    0.2584 C   0  0  0  0  0  0  0  0  0  0  0  0
    0.5317   -4.4040   -0.2448 C   0  0  0  0  0  0  0  0  0  0  0  0
   -1.3873    1.3476    1.2322 C   0  0  0  0  0  0  0  0  0  0  0  0
    1.9499    0.9170    1.2323 C   0  0  0  0  0  0  0  0  0  0  0  0
   -1.7311    0.3700   -0.9501 C   0  0  0  0  0  0  0  0  0  0  0  0
    2.0423   -0.1291   -0.9434 C   0  0  0  0  0  0  0  0  0  0  0  0
   -2.4210    2.2523    0.9898 C   0  0  0  0  0  0  0  0  0  0  0  0
    3.1819    1.5254    0.9921 C   0  0  0  0  0  0  0  0  0  0  0  0
   -2.7647    1.2747   -1.1926 C   0  0  0  0  0  0  0  0  0  0  0  0
    3.2742    0.4793   -1.1836 C   0  0  0  0  0  0  0  0  0  0  0  0
   -3.1097    2.2158   -0.2226 C   0  0  0  0  0  0  0  0  0  0  0  0
    3.8440    1.3066   -0.2159 C   0  0  0  0  0  0  0  0  0  0  0  0
    0.0330   -0.7865    1.5998 H   0  0  0  0  0  0  0  0  0  0  0  0
   -0.0128   -1.8690   -1.2895 H   0  0  0  0  0  0  0  0  0  0  0  0
    0.7898   -3.0857    1.4263 H   0  0  0  0  0  0  0  0  0  0  0  0
    1.8719   -2.7723    0.0818 H   0  0  0  0  0  0  0  0  0  0  0  0
   -0.4210   -4.8047    0.1139 H   0  0  0  0  0  0  0  0  0  0  0  0
    1.3123   -5.1100    0.0580 H   0  0  0  0  0  0  0  0  0  0  0  0
    0.5116   -4.3777   -1.3391 H   0  0  0  0  0  0  0  0  0  0  0  0
   -0.8732    1.3778    2.1869 H   0  0  0  0  0  0  0  0  0  0  0  0
    1.4565    1.0840    2.1839 H   0  0  0  0  0  0  0  0  0  0  0  0
   -1.4503   -0.2949   -1.7579 H   0  0  0  0  0  0  0  0  0  0  0  0
    1.6278   -0.7402   -1.7349 H   0  0  0  0  0  0  0  0  0  0  0  0
   -2.6816    2.9775    1.7564 H   0  0  0  0  0  0  0  0  0  0  0  0
    3.6157    2.1648    1.7568 H   0  0  0  0  0  0  0  0  0  0  0  0
   -3.2829    1.2449   -2.1478 H   0  0  0  0  0  0  0  0  0  0  0  0
    3.7765    0.3050   -2.1319 H   0  0  0  0  0  0  0  0  0  0  0  0
  1 20  1  0  0  0  0
  2 21  1  0  0  0  0
  3  5  1  0  0  0  0
  4  5  2  0  0  0  0
  5  7  1  0  0  0  0
  6  7  1  0  0  0  0
  6  9  1  0  0  0  0
  6 10  1  0  0  0  0
  6 22  1  0  0  0  0
  7  8  1  0  0  0  0
  7 23  1  0  0  0  0
  8 11  1  0  0  0  0
  8 24  1  0  0  0  0
  8 25  1  0  0  0  0
  9 12  2  0  0  0  0
  9 14  1  0  0  0  0
 10 13  2  0  0  0  0
 10 15  1  0  0  0  0
 11 26  1  0  0  0  0
 11 27  1  0  0  0  0
 11 28  1  0  0  0  0
 12 16  1  0  0  0  0
 12 29  1  0  0  0  0
 13 17  1  0  0  0  0
 13 30  1  0  0  0  0
 14 18  2  0  0  0  0
 14 31  1  0  0  0  0
 15 19  2  0  0  0  0
 15 32  1  0  0  0  0
 16 20  2  0  0  0  0
 16 33  1  0  0  0  0
 17 21  2  0  0  0  0
 17 34  1  0  0  0  0
 18 20  1  0  0  0  0
 18 35  1  0  0  0  0
 19 21  1  0  0  0  0
 19 36  1  0  0  0  0
M  CHG  2   3  -1   5   1
M  END
> <PUBCHEM_COMPOUND_CID>
8331

> <PUBCHEM_CONFORMER_RMSD>
0.8

> <PUBCHEM_CONFORMER_DIVERSEORDER>
1
5
4
3
6
2

> <PUBCHEM_MMFF94_PARTIAL_CHARGES>
27
1 -0.18
10 -0.14
12 -0.15
13 -0.15
14 -0.15
15 -0.15
16 -0.15
17 -0.15
18 -0.15
19 -0.15
2 -0.18
20 0.18
21 0.18
29 0.15
3 -0.52
30 0.15
31 0.15
32 0.15
33 0.15
34 0.15
35 0.15
36 0.15
4 -0.52
5 0.8
6 0.29
7 0.24
9 -0.14

> <PUBCHEM_EFFECTIVE_ROTOR_COUNT>
5

> <PUBCHEM_PHARMACOPHORE_FEATURES>
6
1 11 hydrophobe
1 3 acceptor
1 3 anion
1 4 acceptor
6 10 13 15 17 19 21 rings
6 9 12 14 16 18 20 rings

> <PUBCHEM_HEAVY_ATOM_COUNT>
21

> <PUBCHEM_ATOM_DEF_STEREO_COUNT>
0

> <PUBCHEM_ATOM_UDEF_STEREO_COUNT>
1

> <PUBCHEM_BOND_DEF_STEREO_COUNT>
0

> <PUBCHEM_BOND_UDEF_STEREO_COUNT>
0

> <PUBCHEM_ISOTOPIC_ATOM_COUNT>
0

> <PUBCHEM_COMPONENT_COUNT>
1

> <PUBCHEM_CACTVS_TAUTO_COUNT>
2

> <PUBCHEM_CONFORMER_ID>
0000208B00000001

> <PUBCHEM_MMFF94_ENERGY>
60.8061

> <PUBCHEM_FEATURE_SELFOVERLAP>
30.525

> <PUBCHEM_SHAPE_FINGERPRINT>
10165383 225 17904241115328732684
1100329 8 18194401078906427586
11578080 2 13351727432832458966
11640471 11 17894900863183169896
12173636 292 18410291449386682884
12730499 353 18266188219133164961
12788726 201 18192139619294068595
13134695 92 17396981254118789319
13140716 1 18335423418166806242
13149001 5 17979095798302476015
13294875 104 18199456672130369482
13583140 156 16950560016778867784
13681431 1 17402051097812753571
13955234 65 17975702688586878137
13965767 371 17968367936633637532
14142880 1 18114740537739109237
14955137 171 17406567909123893803
16752209 62 18193258900999251426
16945 1 17975685405475091202
17134986 127 18337112246240873804
17357779 13 17840856692575601383
1741750 31 18409728469658640512
18785283 64 18046912576123167513
20510252 161 18268711799670073122
20600515 1 17397793140270957700
21285901 2 17843135949825456215
21330990 113 18267607843083670043
21524375 3 18338233739421378961
2255824 54 17836361554165464559
22907989 373 18192432098092978068
23402539 116 18125439967283519782
23419403 2 17267559033420056775
23557571 272 18126856129960453828
23558518 356 18186804711920421458
23559900 14 18201729406295247910
238 59 18052545374318968401
25 1 18129952165261434280
266924 87 18339635737122533223
283562 15 18265331892263021651
350125 39 18409457963828203682
394222 165 18118956989186214801
4409770 3 18194395813044004710
458136 41 18339369539465228873
474 4 18267299829008366016
559249 180 18408320000375896498
633830 44 17843418284112305521
6442390 28 18339660991650955267
6443956 14 17330549843810397677
7364860 26 17908133279222021465
7808743 9 18334859450296112404
81228 2 18123196967488422546
84936 182 18126561211071572456
9981440 41 18339347626320610586

> <PUBCHEM_SHAPE_MULTIPOLES>
419.19
7.28
4.61
1.23
2.62
5.39
-0.07
-9.86
1.81
-0.98
0.05
-0.06
-0.27
0.11

> <PUBCHEM_SHAPE_SELFOVERLAP>
874.107

> <PUBCHEM_SHAPE_VOLUME>
240.5

> <PUBCHEM_COORDINATE_TYPE>
2
5
10

$$$$
