86211
  -OEChem-07202400483D

 47 49  0     1  0  0  0  0  0999 V2000
   -6.5330   -0.0925   -0.3421 Cl  0  0  0  0  0  0  0  0  0  0  0  0
    1.7639    0.1097    1.6071 O   0  0  0  0  0  0  0  0  0  0  0  0
    1.7174    2.1427   -0.4307 N   0  0  0  0  0  0  0  0  0  0  0  0
    0.7308    2.5131   -1.2487 N   0  0  0  0  0  0  0  0  0  0  0  0
    1.2080    4.1199    0.3080 N   0  0  0  0  0  0  0  0  0  0  0  0
    1.6537   -0.2446    0.2343 C   0  0  1  0  0  0  0  0  0  0  0  0
    2.2257   -1.6576    0.0164 C   0  0  1  0  0  0  0  0  0  0  0  0
    0.1806   -0.4153   -0.2016 C   0  0  1  0  0  0  0  0  0  0  0  0
    1.5715   -2.1345   -1.2841 C   0  0  0  0  0  0  0  0  0  0  0  0
    0.2688   -1.3393   -1.4259 C   0  0  0  0  0  0  0  0  0  0  0  0
    3.7454   -1.7632   -0.0110 C   0  0  0  0  0  0  0  0  0  0  0  0
    2.3543    0.8437   -0.5890 C   0  0  0  0  0  0  0  0  0  0  0  0
   -0.7285   -1.0172    0.8748 C   0  0  0  0  0  0  0  0  0  0  0  0
    4.3405   -1.2426    1.2942 C   0  0  0  0  0  0  0  0  0  0  0  0
    4.1762   -3.2054   -0.2626 C   0  0  0  0  0  0  0  0  0  0  0  0
   -2.1838   -0.7847    0.5688 C   0  0  0  0  0  0  0  0  0  0  0  0
    2.0017    3.0900    0.4898 C   0  0  0  0  0  0  0  0  0  0  0  0
   -2.8081    0.3604    1.0437 C   0  0  0  0  0  0  0  0  0  0  0  0
   -2.8822   -1.7194   -0.1833 C   0  0  0  0  0  0  0  0  0  0  0  0
   -4.1570    0.5752    0.7612 C   0  0  0  0  0  0  0  0  0  0  0  0
   -4.2312   -1.5047   -0.4660 C   0  0  0  0  0  0  0  0  0  0  0  0
    0.4540    3.7236   -0.7593 C   0  0  0  0  0  0  0  0  0  0  0  0
   -4.8687   -0.3572    0.0062 C   0  0  0  0  0  0  0  0  0  0  0  0
    1.8639   -2.3005    0.8334 H   0  0  0  0  0  0  0  0  0  0  0  0
   -0.2824    0.5257   -0.4971 H   0  0  0  0  0  0  0  0  0  0  0  0
    1.3679   -3.2105   -1.2491 H   0  0  0  0  0  0  0  0  0  0  0  0
    2.2076   -1.9480   -2.1574 H   0  0  0  0  0  0  0  0  0  0  0  0
    0.3258   -0.7304   -2.3372 H   0  0  0  0  0  0  0  0  0  0  0  0
   -0.5789   -2.0109   -1.5615 H   0  0  0  0  0  0  0  0  0  0  0  0
    4.1540   -1.1628   -0.8332 H   0  0  0  0  0  0  0  0  0  0  0  0
    2.3661    0.6187   -1.6616 H   0  0  0  0  0  0  0  0  0  0  0  0
    3.3918    0.9940   -0.2740 H   0  0  0  0  0  0  0  0  0  0  0  0
   -0.5281   -0.5758    1.8582 H   0  0  0  0  0  0  0  0  0  0  0  0
   -0.5435   -2.0919    0.9998 H   0  0  0  0  0  0  0  0  0  0  0  0
    1.1802    0.8673    1.7785 H   0  0  0  0  0  0  0  0  0  0  0  0
    3.8935   -1.7371    2.1637 H   0  0  0  0  0  0  0  0  0  0  0  0
    5.4181   -1.4408    1.3258 H   0  0  0  0  0  0  0  0  0  0  0  0
    4.2271   -0.1631    1.4143 H   0  0  0  0  0  0  0  0  0  0  0  0
    3.7713   -3.8815    0.4984 H   0  0  0  0  0  0  0  0  0  0  0  0
    5.2681   -3.2922   -0.2373 H   0  0  0  0  0  0  0  0  0  0  0  0
    3.8505   -3.5630   -1.2443 H   0  0  0  0  0  0  0  0  0  0  0  0
    2.7665    2.9930    1.2474 H   0  0  0  0  0  0  0  0  0  0  0  0
   -2.2623    1.0946    1.6297 H   0  0  0  0  0  0  0  0  0  0  0  0
   -2.4116   -2.6320   -0.5358 H   0  0  0  0  0  0  0  0  0  0  0  0
   -4.6404    1.4741    1.1350 H   0  0  0  0  0  0  0  0  0  0  0  0
   -4.7748   -2.2430   -1.0502 H   0  0  0  0  0  0  0  0  0  0  0  0
   -0.3226    4.3356   -1.1933 H   0  0  0  0  0  0  0  0  0  0  0  0
  1 23  1  0  0  0  0
  2  6  1  0  0  0  0
  2 35  1  0  0  0  0
  3  4  1  0  0  0  0
  3 12  1  0  0  0  0
  3 17  1  0  0  0  0
  4 22  2  0  0  0  0
  5 17  2  0  0  0  0
  5 22  1  0  0  0  0
  6  7  1  0  0  0  0
  6  8  1  0  0  0  0
  6 12  1  0  0  0  0
  7  9  1  0  0  0  0
  7 11  1  0  0  0  0
  7 24  1  0  0  0  0
  8 10  1  0  0  0  0
  8 13  1  0  0  0  0
  8 25  1  0  0  0  0
  9 10  1  0  0  0  0
  9 26  1  0  0  0  0
  9 27  1  0  0  0  0
 10 28  1  0  0  0  0
 10 29  1  0  0  0  0
 11 14  1  0  0  0  0
 11 15  1  0  0  0  0
 11 30  1  0  0  0  0
 12 31  1  0  0  0  0
 12 32  1  0  0  0  0
 13 16  1  0  0  0  0
 13 33  1  0  0  0  0
 13 34  1  0  0  0  0
 14 36  1  0  0  0  0
 14 37  1  0  0  0  0
 14 38  1  0  0  0  0
 15 39  1  0  0  0  0
 15 40  1  0  0  0  0
 15 41  1  0  0  0  0
 16 18  2  0  0  0  0
 16 19  1  0  0  0  0
 17 42  1  0  0  0  0
 18 20  1  0  0  0  0
 18 43  1  0  0  0  0
 19 21  2  0  0  0  0
 19 44  1  0  0  0  0
 20 23  2  0  0  0  0
 20 45  1  0  0  0  0
 21 23  1  0  0  0  0
 21 46  1  0  0  0  0
 22 47  1  0  0  0  0
M  END
> <PUBCHEM_COMPOUND_CID>
86211

> <PUBCHEM_CONFORMER_RMSD>
0.8

> <PUBCHEM_CONFORMER_DIVERSEORDER>
1
32
38
60
41
36
49
35
43
65
45
9
55
8
13
73
48
33
23
21
66
72
14
69
68
71
46
54
20
4
56
59
58
25
42
47
28
61
53
6
62
52
67
34
63
3
57
30
40
12
27
70
31
24
64
19
16
29
50
44
18
5
39
15
26
37
10
22
11
2
51
17
7

> <PUBCHEM_MMFF94_PARTIAL_CHARGES>
23
1 -0.18
12 0.26
13 0.14
16 -0.14
17 0.04
18 -0.15
19 -0.15
2 -0.68
20 -0.15
21 -0.15
22 0.37
23 0.18
3 0.31
35 0.4
4 -0.71
42 0.15
43 0.15
44 0.15
45 0.15
46 0.15
47 0.15
5 -0.57
6 0.28

> <PUBCHEM_EFFECTIVE_ROTOR_COUNT>
6

> <PUBCHEM_PHARMACOPHORE_FEATURES>
8
1 2 acceptor
1 2 donor
3 11 14 15 hydrophobe
3 3 5 17 cation
3 4 5 22 cation
5 3 4 5 17 22 rings
5 6 7 8 9 10 rings
6 16 18 19 20 21 23 rings

> <PUBCHEM_HEAVY_ATOM_COUNT>
23

> <PUBCHEM_ATOM_DEF_STEREO_COUNT>
0

> <PUBCHEM_ATOM_UDEF_STEREO_COUNT>
3

> <PUBCHEM_BOND_DEF_STEREO_COUNT>
0

> <PUBCHEM_BOND_UDEF_STEREO_COUNT>
0

> <PUBCHEM_ISOTOPIC_ATOM_COUNT>
0

> <PUBCHEM_COMPONENT_COUNT>
1

> <PUBCHEM_CACTVS_TAUTO_COUNT>
1

> <PUBCHEM_CONFORMER_ID>
000150C300000001

> <PUBCHEM_MMFF94_ENERGY>
63.1969

> <PUBCHEM_FEATURE_SELFOVERLAP>
43.361

> <PUBCHEM_SHAPE_FINGERPRINT>
10937287 8 17618222153519080629
11405975 8 18409735088625516459
11475781 23 13973135190620761331
116883 192 18194692453781989062
12166972 35 18273494559708723243
12293681 25 16907778827202118438
12516196 113 18336265656895482266
12633257 1 17532916410622940905
12788726 201 18044382630402359866
13004483 165 18193828254728188850
13009979 54 17987535752530316355
13134695 92 18408044013343919508
13583140 156 18113624486962682579
138480 1 18410577296677264084
13899415 180 18336818693684271159
13965767 371 17978482537144263016
14178000 15 18411421691637304288
14790565 3 18048323529216619284
14863182 85 16558759987613181671
15420108 30 17982434195425409920
1601671 61 18412830209414564492
17349148 13 18060419088828877691
17357779 13 18196076755753315572
17492 89 18338518676585725315
17844677 252 18409175420380153763
17980427 23 17917431999629956785
1813 80 18340776927165424118
18222031 100 18341055116592516422
18335252 114 18336536120266746589
18681886 176 18131070497514964134
192875 21 18342740702372087363
20715895 44 18342454786995557665
20739085 24 18341889701968552278
21033648 29 17168410650132292461
21041028 32 18337387141512225508
2132832 1 18201720622491327657
21478907 32 18047752594528169170
21524375 3 17622741120612763044
21641784 216 17825412716555952500
21860390 5 18410860992267657245
22289505 5 18334295370549378077
23402539 116 18269551629265000391
23419403 2 17772163368080174352
23558518 356 18049991496323430290
23559900 14 18412261766055975699
283562 15 18045506305431889954
3060560 45 18200888369186860526
345986 75 17461418262203947322
4409770 3 17758955918079136780
474 4 18264208196111816601
5104073 3 18336836398441513387
5895379 119 17987817202112191617
67856867 119 18270956972644665179
7164475 11 18046919173778964446
7364860 26 18339083803696389592
81228 2 17758137916130558146
9709674 26 18263931097786421659
9777508 108 17548132234660513288
9971528 1 18412542089706949546
9981440 41 17689712386655915521

> <PUBCHEM_SHAPE_MULTIPOLES>
454.39
9.8
4.08
1.19
13.88
5.17
-0.03
-5.79
-0.87
-4.64
0.88
-0.4
-0.06
-0.24

> <PUBCHEM_SHAPE_SELFOVERLAP>
955.934

> <PUBCHEM_SHAPE_VOLUME>
260.1

> <PUBCHEM_COORDINATE_TYPE>
2
5
10

$$$$
