86287518
  -OEChem-07202400483D

 27 28  0     0  0  0  0  0  0999 V2000
   -5.1402    1.2493   -1.0050 Cl  0  0  0  0  0  0  0  0  0  0  0  0
    2.9531    2.2331   -0.9406 O   0  5  0  0  0  0  0  0  0  0  0  0
    4.1715    1.4195    0.6721 O   0  0  0  0  0  0  0  0  0  0  0  0
    0.8332   -1.2044    0.3624 N   0  0  0  0  0  0  0  0  0  0  0  0
    2.6454   -0.8879   -0.8612 N   0  0  0  0  0  0  0  0  0  0  0  0
    2.0043    0.8996    0.5698 N   0  0  0  0  0  0  0  0  0  0  0  0
   -3.6767   -0.6795   -0.0799 N   0  0  0  0  0  0  0  0  0  0  0  0
    3.0888    1.5341    0.0756 N   0  3  0  0  0  0  0  0  0  0  0  0
    1.0396   -2.4888   -0.2990 C   0  0  0  0  0  0  0  0  0  0  0  0
    2.1905   -2.1998   -1.2744 C   0  0  0  0  0  0  0  0  0  0  0  0
   -0.1988   -1.0599    1.3605 C   0  0  0  0  0  0  0  0  0  0  0  0
    1.8326   -0.2848    0.0773 C   0  0  0  0  0  0  0  0  0  0  0  0
   -1.4249   -0.4272    0.7630 C   0  0  0  0  0  0  0  0  0  0  0  0
   -1.4710    0.9371    0.4987 C   0  0  0  0  0  0  0  0  0  0  0  0
   -2.5441   -1.1850    0.4580 C   0  0  0  0  0  0  0  0  0  0  0  0
   -2.6188    1.4941   -0.0545 C   0  0  0  0  0  0  0  0  0  0  0  0
   -3.6845    0.6504   -0.3229 C   0  0  0  0  0  0  0  0  0  0  0  0
    0.1430   -2.8281   -0.8272 H   0  0  0  0  0  0  0  0  0  0  0  0
    1.3349   -3.2507    0.4306 H   0  0  0  0  0  0  0  0  0  0  0  0
    2.9857   -2.9467   -1.1973 H   0  0  0  0  0  0  0  0  0  0  0  0
    1.8297   -2.1647   -2.3071 H   0  0  0  0  0  0  0  0  0  0  0  0
    0.1555   -0.4485    2.2001 H   0  0  0  0  0  0  0  0  0  0  0  0
   -0.4501   -2.0354    1.7957 H   0  0  0  0  0  0  0  0  0  0  0  0
    3.4643   -0.4652   -1.2826 H   0  0  0  0  0  0  0  0  0  0  0  0
   -0.6291    1.5823    0.7285 H   0  0  0  0  0  0  0  0  0  0  0  0
   -2.5691   -2.2551    0.6387 H   0  0  0  0  0  0  0  0  0  0  0  0
   -2.6655    2.5579   -0.2617 H   0  0  0  0  0  0  0  0  0  0  0  0
  1 17  1  0  0  0  0
  2  8  1  0  0  0  0
  3  8  2  0  0  0  0
  4  9  1  0  0  0  0
  4 11  1  0  0  0  0
  4 12  1  0  0  0  0
  5 10  1  0  0  0  0
  5 12  1  0  0  0  0
  5 24  1  0  0  0  0
  6  8  1  0  0  0  0
  6 12  2  0  0  0  0
  7 15  1  0  0  0  0
  7 17  2  0  0  0  0
  9 10  1  0  0  0  0
  9 18  1  0  0  0  0
  9 19  1  0  0  0  0
 10 20  1  0  0  0  0
 10 21  1  0  0  0  0
 11 13  1  0  0  0  0
 11 22  1  0  0  0  0
 11 23  1  0  0  0  0
 13 14  1  0  0  0  0
 13 15  2  0  0  0  0
 14 16  2  0  0  0  0
 14 25  1  0  0  0  0
 15 26  1  0  0  0  0
 16 17  1  0  0  0  0
 16 27  1  0  0  0  0
M  CHG  2   2  -1   8   1
M  END
> <PUBCHEM_COMPOUND_CID>
86287518

> <PUBCHEM_CONFORMER_RMSD>
0.6

> <PUBCHEM_CONFORMER_DIVERSEORDER>
1
18
13
25
24
22
27
7
10
17
21
8
28
20
14
26
2
15
5
29
23
11
6
16
30
19
3
9
4
12

> <PUBCHEM_MMFF94_PARTIAL_CHARGES>
21
1 -0.18
10 0.37
11 0.51
12 0.55
13 -0.14
14 -0.15
15 0.16
16 -0.15
17 0.49
2 -0.52
24 0.4
25 0.15
26 0.15
27 0.15
3 -0.52
4 -0.79
5 -0.82
6 -0.5
7 -0.62
8 1.09
9 0.37

> <PUBCHEM_EFFECTIVE_ROTOR_COUNT>
3.8

> <PUBCHEM_PHARMACOPHORE_FEATURES>
7
1 2 acceptor
1 3 acceptor
1 5 donor
1 7 acceptor
4 4 5 6 12 cation
5 4 5 9 10 12 rings
6 7 13 14 15 16 17 rings

> <PUBCHEM_HEAVY_ATOM_COUNT>
17

> <PUBCHEM_ATOM_DEF_STEREO_COUNT>
0

> <PUBCHEM_ATOM_UDEF_STEREO_COUNT>
0

> <PUBCHEM_BOND_DEF_STEREO_COUNT>
1

> <PUBCHEM_BOND_UDEF_STEREO_COUNT>
0

> <PUBCHEM_ISOTOPIC_ATOM_COUNT>
0

> <PUBCHEM_COMPONENT_COUNT>
1

> <PUBCHEM_CACTVS_TAUTO_COUNT>
2

> <PUBCHEM_CONFORMER_ID>
0524A49E00000001

> <PUBCHEM_MMFF94_ENERGY>
48.8372

> <PUBCHEM_FEATURE_SELFOVERLAP>
35.609

> <PUBCHEM_SHAPE_FINGERPRINT>
10498660 4 18260265227213660341
10608611 8 18408888408309513393
10871710 139 16103329463933385836
11715629 250 18260825965116220021
11759241 127 18335978774469985199
12670546 177 18339345410855808135
14250199 8 18340212873441908527
15502722 9 18272656731416113718
15536298 74 18411982425524672909
18186145 218 18261959523065854345
20361792 2 15051439471625569163
20645477 70 18130224861546388879
20671657 53 17841441327661118822
21486144 27 18261676974262897855
21524375 3 18338234989610225290
21618674 68 18410853231393972589
21947302 44 18408888412583563714
22096605 113 18342176656811673763
23114952 82 18340215080828330134
23402539 116 18336815502713292136
23557571 272 18188219800696827683
23559900 14 18340201891021122458
23598291 2 17488196889145985377
2748010 2 18264790868106869698
3060560 45 18270117898970010494
4028521 119 18261391122746316925
474 4 18260268555402000805
5262128 65 17914630357760276351
58051976 378 18343862225316930013
6049 1 18117587113340596531
633830 44 18194956354311836597
7364860 26 18270963436349068386
7832392 63 17765724520233953121
81539 233 18411699906886727118
83771 10 10447936078671637104
93112 12 18341335470624726943
9709674 26 18410015433698559383

> <PUBCHEM_SHAPE_MULTIPOLES>
315.08
8.01
2.42
1.08
5.31
0.09
-0.05
-4.04
-2.35
-2.24
-0.47
-0.12
0.2
0.96

> <PUBCHEM_SHAPE_SELFOVERLAP>
654.322

> <PUBCHEM_SHAPE_VOLUME>
182.5

> <PUBCHEM_COORDINATE_TYPE>
2
5
10

$$$$
