86308
  -OEChem-07202400513D

 26 27  0     0  0  0  0  0  0999 V2000
    1.9777   -1.6765   -0.2455 O   0  0  0  0  0  0  0  0  0  0  0  0
   -4.1806    0.1061    0.1715 O   0  0  0  0  0  0  0  0  0  0  0  0
    1.2726    0.5707   -0.2770 N   0  0  0  0  0  0  0  0  0  0  0  0
   -2.0888   -0.8902    0.0453 N   0  0  0  0  0  0  0  0  0  0  0  0
    3.6217   -0.0219   -0.4367 C   0  0  0  0  0  0  0  0  0  0  0  0
    4.6024   -0.4821    0.5836 C   0  0  0  0  0  0  0  0  0  0  0  0
    4.1456    0.9471    0.5640 C   0  0  0  0  0  0  0  0  0  0  0  0
    2.2008   -0.4753   -0.3086 C   0  0  0  0  0  0  0  0  0  0  0  0
   -0.1133    0.4872   -0.1659 C   0  0  0  0  0  0  0  0  0  0  0  0
   -0.9013    1.6326   -0.1498 C   0  0  0  0  0  0  0  0  0  0  0  0
   -0.7501   -0.7394   -0.0661 C   0  0  0  0  0  0  0  0  0  0  0  0
   -2.2824    1.5181   -0.0363 C   0  0  0  0  0  0  0  0  0  0  0  0
   -2.8221    0.2454    0.0573 C   0  0  0  0  0  0  0  0  0  0  0  0
   -4.6822   -1.2218    0.2643 C   0  0  0  0  0  0  0  0  0  0  0  0
    3.9821    0.0628   -1.4563 H   0  0  0  0  0  0  0  0  0  0  0  0
    5.6136   -0.6918    0.2562 H   0  0  0  0  0  0  0  0  0  0  0  0
    4.2605   -1.1060    1.4003 H   0  0  0  0  0  0  0  0  0  0  0  0
    3.5092    1.2752    1.3768 H   0  0  0  0  0  0  0  0  0  0  0  0
    4.8492    1.6964    0.2216 H   0  0  0  0  0  0  0  0  0  0  0  0
    1.6448    1.5151   -0.3497 H   0  0  0  0  0  0  0  0  0  0  0  0
   -0.4521    2.6194   -0.2245 H   0  0  0  0  0  0  0  0  0  0  0  0
   -0.2393   -1.6919   -0.0672 H   0  0  0  0  0  0  0  0  0  0  0  0
   -2.9110    2.4017   -0.0219 H   0  0  0  0  0  0  0  0  0  0  0  0
   -4.4436   -1.7959   -0.6372 H   0  0  0  0  0  0  0  0  0  0  0  0
   -5.7715   -1.1648    0.3487 H   0  0  0  0  0  0  0  0  0  0  0  0
   -4.3007   -1.7243    1.1595 H   0  0  0  0  0  0  0  0  0  0  0  0
  1  8  2  0  0  0  0
  2 13  1  0  0  0  0
  2 14  1  0  0  0  0
  3  8  1  0  0  0  0
  3  9  1  0  0  0  0
  3 20  1  0  0  0  0
  4 11  1  0  0  0  0
  4 13  2  0  0  0  0
  5  6  1  0  0  0  0
  5  7  1  0  0  0  0
  5  8  1  0  0  0  0
  5 15  1  0  0  0  0
  6  7  1  0  0  0  0
  6 16  1  0  0  0  0
  6 17  1  0  0  0  0
  7 18  1  0  0  0  0
  7 19  1  0  0  0  0
  9 10  1  0  0  0  0
  9 11  2  0  0  0  0
 10 12  2  0  0  0  0
 10 21  1  0  0  0  0
 11 22  1  0  0  0  0
 12 13  1  0  0  0  0
 12 23  1  0  0  0  0
 14 24  1  0  0  0  0
 14 25  1  0  0  0  0
 14 26  1  0  0  0  0
M  END
> <PUBCHEM_COMPOUND_CID>
86308

> <PUBCHEM_CONFORMER_RMSD>
0.6

> <PUBCHEM_CONFORMER_DIVERSEORDER>
1
9
4
11
7
3
10
2
6
8
5

> <PUBCHEM_MMFF94_PARTIAL_CHARGES>
23
1 -0.57
10 -0.15
11 0.16
12 -0.15
13 0.39
14 0.28
15 0.1
16 0.1
17 0.1
18 0.1
19 0.1
2 -0.36
20 0.37
21 0.15
22 0.15
23 0.15
3 -0.55
4 -0.62
5 -0.1
6 -0.2
7 -0.2
8 0.63
9 0.12

> <PUBCHEM_EFFECTIVE_ROTOR_COUNT>
4.6

> <PUBCHEM_PHARMACOPHORE_FEATURES>
3
1 1 acceptor
1 3 donor
6 4 9 10 11 12 13 rings

> <PUBCHEM_HEAVY_ATOM_COUNT>
14

> <PUBCHEM_ATOM_DEF_STEREO_COUNT>
0

> <PUBCHEM_ATOM_UDEF_STEREO_COUNT>
0

> <PUBCHEM_BOND_DEF_STEREO_COUNT>
0

> <PUBCHEM_BOND_UDEF_STEREO_COUNT>
0

> <PUBCHEM_ISOTOPIC_ATOM_COUNT>
0

> <PUBCHEM_COMPONENT_COUNT>
1

> <PUBCHEM_CACTVS_TAUTO_COUNT>
2

> <PUBCHEM_CONFORMER_ID>
0001512400000001

> <PUBCHEM_MMFF94_ENERGY>
42.198

> <PUBCHEM_FEATURE_SELFOVERLAP>
15.223

> <PUBCHEM_SHAPE_FINGERPRINT>
10608611 8 18341046307704133084
11401426 45 18409445886922999061
11806522 49 18335702775460427941
12032990 46 18409173229350551695
12932764 1 16773498985152331084
13214271 11 18343017770854900605
13237642 15 18343580771946899016
13690532 89 18113619001624215605
13862211 1 18409164454759272419
14123238 8 18410856585409599843
14144814 61 18410293562684496560
14252887 29 17988657288718899742
14325111 11 18339081471455327356
18522853 276 18411139138618501521
18785283 64 17700961399989013640
200 152 18334853931151399295
20279233 1 18410017619467511506
20510252 161 18200878366192554417
20528008 55 18342171172228133412
20645477 70 17346326947354799166
21119208 17 10665227055309872778
21267235 1 18409739451916318646
21501925 9 18334015007758057220
22485316 2 18409728443920251343
22854114 59 18131349717675704696
2297311 6 18272101469971091156
23402539 116 18409722972258549567
23557571 272 18270975552304176212
23559900 14 18196649601786055822
26918003 58 17967531289556364971
42 15 18334012774596420954
43471831 8 18188489064659847595
449060 50 17846499253031332868
5104073 3 18340487759812245906
522135 26 11671788161124293236
5374978 207 18409726275035711088
573450 72 17968366853974402568
69090 78 18272085006702114415
9709674 26 18410018706147361742

> <PUBCHEM_SHAPE_MULTIPOLES>
266.41
9.29
1.48
0.68
1.23
0.14
0.02
-1.76
1.63
-0.57
-0.01
0.28
0.01
0.26

> <PUBCHEM_SHAPE_SELFOVERLAP>
554.839

> <PUBCHEM_SHAPE_VOLUME>
152.1

> <PUBCHEM_COORDINATE_TYPE>
2
5
10

$$$$
