86367
  -OEChem-07202400293D

 32 34  0     0  0  0  0  0  0999 V2000
    0.6674    0.2536    0.2148 N   0  0  0  0  0  0  0  0  0  0  0  0
    1.2745   -2.0412   -0.2012 N   0  0  0  0  0  0  0  0  0  0  0  0
   -0.9744   -1.3717   -0.1948 N   0  0  0  0  0  0  0  0  0  0  0  0
    2.3457    1.9531    0.6431 C   0  0  0  0  0  0  0  0  0  0  0  0
    3.3096    2.6634   -0.2538 C   0  0  0  0  0  0  0  0  0  0  0  0
    1.8568    3.0391   -0.2627 C   0  0  0  0  0  0  0  0  0  0  0  0
    1.9800    0.5385    0.3442 C   0  0  0  0  0  0  0  0  0  0  0  0
    2.9841   -0.3991    0.2164 C   0  0  0  0  0  0  0  0  0  0  0  0
    2.5682   -1.6858   -0.0591 C   0  0  0  0  0  0  0  0  0  0  0  0
    0.3864   -1.0373   -0.0542 C   0  0  0  0  0  0  0  0  0  0  0  0
    3.5817   -2.7694   -0.2160 C   0  0  0  0  0  0  0  0  0  0  0  0
   -2.1587   -0.6103   -0.1114 C   0  0  0  0  0  0  0  0  0  0  0  0
   -3.3428   -1.2070    0.3218 C   0  0  0  0  0  0  0  0  0  0  0  0
   -2.1459    0.7396   -0.4626 C   0  0  0  0  0  0  0  0  0  0  0  0
   -4.5141   -0.4540    0.4037 C   0  0  0  0  0  0  0  0  0  0  0  0
   -3.3172    1.4927   -0.3806 C   0  0  0  0  0  0  0  0  0  0  0  0
   -4.5013    0.8958    0.0525 C   0  0  0  0  0  0  0  0  0  0  0  0
    2.4022    2.2096    1.6984 H   0  0  0  0  0  0  0  0  0  0  0  0
    3.6970    2.1631   -1.1333 H   0  0  0  0  0  0  0  0  0  0  0  0
    4.0062    3.3570    0.2021 H   0  0  0  0  0  0  0  0  0  0  0  0
    1.5781    3.9847    0.1867 H   0  0  0  0  0  0  0  0  0  0  0  0
    1.2786    2.7787   -1.1412 H   0  0  0  0  0  0  0  0  0  0  0  0
    4.0320   -0.1481    0.3288 H   0  0  0  0  0  0  0  0  0  0  0  0
    4.2600   -2.5393   -1.0438 H   0  0  0  0  0  0  0  0  0  0  0  0
    4.1646   -2.8818    0.7037 H   0  0  0  0  0  0  0  0  0  0  0  0
    3.1012   -3.7297   -0.4304 H   0  0  0  0  0  0  0  0  0  0  0  0
   -1.1250   -2.3740   -0.2601 H   0  0  0  0  0  0  0  0  0  0  0  0
   -3.3659   -2.2578    0.5990 H   0  0  0  0  0  0  0  0  0  0  0  0
   -1.2596    1.2340   -0.8460 H   0  0  0  0  0  0  0  0  0  0  0  0
   -5.4362   -0.9187    0.7404 H   0  0  0  0  0  0  0  0  0  0  0  0
   -3.3102    2.5414   -0.6635 H   0  0  0  0  0  0  0  0  0  0  0  0
   -5.4138    1.4815    0.1140 H   0  0  0  0  0  0  0  0  0  0  0  0
  1  7  2  0  0  0  0
  1 10  1  0  0  0  0
  2  9  1  0  0  0  0
  2 10  2  0  0  0  0
  3 10  1  0  0  0  0
  3 12  1  0  0  0  0
  3 27  1  0  0  0  0
  4  5  1  0  0  0  0
  4  6  1  0  0  0  0
  4  7  1  0  0  0  0
  4 18  1  0  0  0  0
  5  6  1  0  0  0  0
  5 19  1  0  0  0  0
  5 20  1  0  0  0  0
  6 21  1  0  0  0  0
  6 22  1  0  0  0  0
  7  8  1  0  0  0  0
  8  9  2  0  0  0  0
  8 23  1  0  0  0  0
  9 11  1  0  0  0  0
 11 24  1  0  0  0  0
 11 25  1  0  0  0  0
 11 26  1  0  0  0  0
 12 13  2  0  0  0  0
 12 14  1  0  0  0  0
 13 15  1  0  0  0  0
 13 28  1  0  0  0  0
 14 16  2  0  0  0  0
 14 29  1  0  0  0  0
 15 17  2  0  0  0  0
 15 30  1  0  0  0  0
 16 17  1  0  0  0  0
 16 31  1  0  0  0  0
 17 32  1  0  0  0  0
M  END
> <PUBCHEM_COMPOUND_CID>
86367

> <PUBCHEM_CONFORMER_RMSD>
0.6

> <PUBCHEM_CONFORMER_DIVERSEORDER>
1
18
11
10
13
16
8
19
7
20
3
21
5
14
4
12
6
15
2
9
17

> <PUBCHEM_MMFF94_PARTIAL_CHARGES>
29
1 -0.62
10 0.72
11 0.14
12 0.1
13 -0.15
14 -0.15
15 -0.15
16 -0.15
17 -0.15
18 0.1
19 0.1
2 -0.62
20 0.1
21 0.1
22 0.1
23 0.15
27 0.4
28 0.15
29 0.15
3 -0.6
30 0.15
31 0.15
32 0.15
4 -0.07
5 -0.2
6 -0.2
7 0.28
8 -0.15
9 0.17

> <PUBCHEM_EFFECTIVE_ROTOR_COUNT>
3.6

> <PUBCHEM_PHARMACOPHORE_FEATURES>
5
1 1 acceptor
1 3 donor
4 1 2 3 10 cation
6 1 2 7 8 9 10 rings
6 12 13 14 15 16 17 rings

> <PUBCHEM_HEAVY_ATOM_COUNT>
17

> <PUBCHEM_ATOM_DEF_STEREO_COUNT>
0

> <PUBCHEM_ATOM_UDEF_STEREO_COUNT>
0

> <PUBCHEM_BOND_DEF_STEREO_COUNT>
0

> <PUBCHEM_BOND_UDEF_STEREO_COUNT>
0

> <PUBCHEM_ISOTOPIC_ATOM_COUNT>
0

> <PUBCHEM_COMPONENT_COUNT>
1

> <PUBCHEM_CACTVS_TAUTO_COUNT>
3

> <PUBCHEM_CONFORMER_ID>
0001515F00000001

> <PUBCHEM_MMFF94_ENERGY>
55.4913

> <PUBCHEM_FEATURE_SELFOVERLAP>
25.371

> <PUBCHEM_SHAPE_FINGERPRINT>
10366900 7 17749678389673044211
10465860 228 18412546534897809064
10608611 8 18408318882951124397
11471102 20 18340764853780090383
11615756 256 18412267233544049265
12173636 292 17619063275861598116
12403259 226 18262514789059000205
12507557 5 18340483370419030787
12788726 201 17613158464845515890
12916754 54 18412265030515781763
138480 1 18338797819236302044
14026960 21 18337112379600812859
14123255 52 18124031497004178584
14250199 8 18412256221221021927
14415576 193 18411701023229921453
14648413 74 18409166631964520994
15196674 1 18410573994448423401
15442244 35 18268994193590566976
15536298 74 18412263956230469885
1601671 61 18411136922995456564
17041 50 18265612087317976342
17134986 127 18194125355069936580
17492 89 18411135874681467399
17804303 29 18263087621801027231
18186145 218 18272940418353495419
18785283 64 18261956349143213756
20645477 70 18410567392746131407
20671657 1 18412829096464166484
20671657 53 18198630921433586858
20681677 76 18335132094935204023
21065198 57 18410013204784547715
21478907 32 17546730352966700426
21501502 16 18270110344106562807
21524375 3 17983860270206134254
221490 88 18408892840478736979
2255824 54 18411699881059258262
22854114 111 18411699923739477153
23366157 5 18186800305373236898
23558518 356 17972314285618477090
23559900 14 18411131399219348547
3091708 16 9360673015140929370
4409770 3 17179113016685422644
474 4 18335979890892547321
49207404 50 18189905386244459011
5104073 3 18408045109156634051
6049 1 18113891620431330845
68521 5 17978795606459266646
7364860 26 18411982477095805580
7808743 9 17545599415100415936
81228 2 17623018893628358098
9709674 26 18408324414885241819
9971528 1 18201147742425727002
9981440 41 17978220883620510624

> <PUBCHEM_SHAPE_MULTIPOLES>
334.91
8.39
3.21
0.69
7.24
0.95
-0.02
0.39
-0.33
-4.31
0.31
0.01
0.08
0.41

> <PUBCHEM_SHAPE_SELFOVERLAP>
717.588

> <PUBCHEM_SHAPE_VOLUME>
181.2

> <PUBCHEM_COORDINATE_TYPE>
2
5
10

$$$$
