86417
  -OEChem-07202400483D

 33 36  0     0  0  0  0  0  0999 V2000
   -1.0169   -0.8568   -2.5524 Cl  0  0  0  0  0  0  0  0  0  0  0  0
   -5.5508   -2.4462   -0.1304 Cl  0  0  0  0  0  0  0  0  0  0  0  0
    5.8099   -1.7231    0.2092 F   0  0  0  0  0  0  0  0  0  0  0  0
    0.8679   -2.3178    0.6834 O   0  0  0  0  0  0  0  0  0  0  0  0
   -0.0661   -0.1893    0.2747 N   0  0  0  0  0  0  0  0  0  0  0  0
    1.4202    1.6291   -0.2274 N   0  0  0  0  0  0  0  0  0  0  0  0
   -0.8242    2.0916    0.1136 N   0  0  0  0  0  0  0  0  0  0  0  0
   -1.8755    1.8328    0.9090 N   0  0  0  0  0  0  0  0  0  0  0  0
   -2.1019    3.8498   -0.1461 N   0  0  0  0  0  0  0  0  0  0  0  0
    2.3500   -0.5859    0.2282 C   0  0  0  0  0  0  0  0  0  0  0  0
    0.2380    1.1601    0.0167 C   0  0  0  0  0  0  0  0  0  0  0  0
    0.9847   -1.1176    0.4464 C   0  0  0  0  0  0  0  0  0  0  0  0
   -1.3956   -0.7397    0.1484 C   0  0  0  0  0  0  0  0  0  0  0  0
    2.5048    0.7498   -0.1478 C   0  0  0  0  0  0  0  0  0  0  0  0
    3.4651   -1.4250    0.3464 C   0  0  0  0  0  0  0  0  0  0  0  0
    3.7911    1.2390   -0.4042 C   0  0  0  0  0  0  0  0  0  0  0  0
   -1.9186   -1.0748   -1.0947 C   0  0  0  0  0  0  0  0  0  0  0  0
   -2.1418   -0.9258    1.3064 C   0  0  0  0  0  0  0  0  0  0  0  0
    4.7410   -0.9248    0.0892 C   0  0  0  0  0  0  0  0  0  0  0  0
    4.9042    0.4057   -0.2883 C   0  0  0  0  0  0  0  0  0  0  0  0
   -3.2065   -1.6033   -1.1816 C   0  0  0  0  0  0  0  0  0  0  0  0
   -3.4296   -1.4542    1.2195 C   0  0  0  0  0  0  0  0  0  0  0  0
   -0.9693    3.2944   -0.5097 C   0  0  0  0  0  0  0  0  0  0  0  0
   -3.9620   -1.7930   -0.0245 C   0  0  0  0  0  0  0  0  0  0  0  0
   -2.6180    2.9250    0.7160 C   0  0  0  0  0  0  0  0  0  0  0  0
    3.3613   -2.4680    0.6324 H   0  0  0  0  0  0  0  0  0  0  0  0
    3.9342    2.2786   -0.6896 H   0  0  0  0  0  0  0  0  0  0  0  0
   -1.7338   -0.6772    2.2829 H   0  0  0  0  0  0  0  0  0  0  0  0
    5.8979    0.7962   -0.4869 H   0  0  0  0  0  0  0  0  0  0  0  0
   -3.6236   -1.8684   -2.1509 H   0  0  0  0  0  0  0  0  0  0  0  0
   -4.0057   -1.5990    2.1298 H   0  0  0  0  0  0  0  0  0  0  0  0
   -0.2457    3.7060   -1.1995 H   0  0  0  0  0  0  0  0  0  0  0  0
   -3.5652    3.0502    1.2189 H   0  0  0  0  0  0  0  0  0  0  0  0
  1 17  1  0  0  0  0
  2 24  1  0  0  0  0
  3 19  1  0  0  0  0
  4 12  2  0  0  0  0
  5 11  1  0  0  0  0
  5 12  1  0  0  0  0
  5 13  1  0  0  0  0
  6 11  2  0  0  0  0
  6 14  1  0  0  0  0
  7  8  1  0  0  0  0
  7 11  1  0  0  0  0
  7 23  1  0  0  0  0
  8 25  2  0  0  0  0
  9 23  2  0  0  0  0
  9 25  1  0  0  0  0
 10 12  1  0  0  0  0
 10 14  2  0  0  0  0
 10 15  1  0  0  0  0
 13 17  2  0  0  0  0
 13 18  1  0  0  0  0
 14 16  1  0  0  0  0
 15 19  2  0  0  0  0
 15 26  1  0  0  0  0
 16 20  2  0  0  0  0
 16 27  1  0  0  0  0
 17 21  1  0  0  0  0
 18 22  2  0  0  0  0
 18 28  1  0  0  0  0
 19 20  1  0  0  0  0
 20 29  1  0  0  0  0
 21 24  2  0  0  0  0
 21 30  1  0  0  0  0
 22 24  1  0  0  0  0
 22 31  1  0  0  0  0
 23 32  1  0  0  0  0
 25 33  1  0  0  0  0
M  END
> <PUBCHEM_COMPOUND_CID>
86417

> <PUBCHEM_CONFORMER_RMSD>
0.6

> <PUBCHEM_CONFORMER_DIVERSEORDER>
1
5
7
4
6
2
8
3

> <PUBCHEM_MMFF94_PARTIAL_CHARGES>
33
1 -0.18
10 0.09
11 0.52
12 0.54
13 0.12
14 0.18
15 -0.15
16 -0.15
17 0.18
18 -0.15
19 0.19
2 -0.18
20 -0.15
21 -0.15
22 -0.15
23 0.04
24 0.18
25 0.37
26 0.15
27 0.15
28 0.15
29 0.15
3 -0.19
30 0.15
31 0.15
32 0.15
33 0.15
4 -0.57
5 -0.24
6 -0.63
7 0.56
8 -0.71
9 -0.57

> <PUBCHEM_EFFECTIVE_ROTOR_COUNT>
2

> <PUBCHEM_PHARMACOPHORE_FEATURES>
7
1 4 acceptor
3 7 9 23 cation
3 8 9 25 cation
5 7 8 9 23 25 rings
6 10 14 15 16 19 20 rings
6 13 17 18 21 22 24 rings
6 5 6 10 11 12 14 rings

> <PUBCHEM_HEAVY_ATOM_COUNT>
25

> <PUBCHEM_ATOM_DEF_STEREO_COUNT>
0

> <PUBCHEM_ATOM_UDEF_STEREO_COUNT>
0

> <PUBCHEM_BOND_DEF_STEREO_COUNT>
0

> <PUBCHEM_BOND_UDEF_STEREO_COUNT>
0

> <PUBCHEM_ISOTOPIC_ATOM_COUNT>
0

> <PUBCHEM_COMPONENT_COUNT>
1

> <PUBCHEM_CACTVS_TAUTO_COUNT>
1

> <PUBCHEM_CONFORMER_ID>
0001519100000001

> <PUBCHEM_MMFF94_ENERGY>
97.6714

> <PUBCHEM_FEATURE_SELFOVERLAP>
38.295

> <PUBCHEM_SHAPE_FINGERPRINT>
10165383 225 16600994742472335933
10411042 1 18410293652894809531
104564 63 18412262826622435437
10616163 171 18339081475992939642
10670039 82 18188789339795161684
1100329 8 17614276659290619146
11045515 52 18261949764873849317
11578080 2 17559933533025999649
12236239 1 17917155021500258067
12403814 3 18060702809703998223
12422481 6 17915484751794708115
12553582 1 18269825574784363206
12714826 92 18060700585105909896
12788726 201 18411990182103675736
13004483 165 18341606066317076643
13134695 92 18124032588426726589
13140716 1 18265328422583308208
13540713 5 18188495675389488608
13583140 156 16772932737349932666
13911987 19 17971201554144232478
14178342 30 18191849151246567274
14251751 93 18339364037638463912
14840074 17 17986964139796741876
15042514 8 18339928103977881689
16087824 20 18337954464692575721
17138139 8 17694736854817606557
17492 89 18339642231519454662
1813 80 18199763585776342367
18393751 57 17766537420995923584
200 152 18335979856453934370
20602899 9 16270778053912895405
21041028 32 18410856603011514381
21236236 1 18410294671218491272
21267235 1 18410863195401782842
21307412 95 17409666354830177038
21641784 216 18041575714006859316
221357 26 18189885578367272119
23175994 123 18189053260633234679
23227448 37 18265054622175046068
23402539 116 18412544335827204051
23419403 2 11562163364168750965
23558518 356 18188217494125212570
23598288 3 18271238318403078998
25147074 1 18187932742610590220
283562 15 18408039615271106170
312423 11 18334022687797704172
350125 39 18410859858755383088
5104073 3 18338790119034752224
513202 73 18340497655259367111
6438718 38 18201155451538426565
7164475 11 18410294701030204236
7471813 234 18198057174290761429
7970288 3 18339921627231126478

> <PUBCHEM_SHAPE_MULTIPOLES>
480.18
9.46
3.58
1.26
5.62
4.15
-0.64
-7.03
0.33
-2.83
0.19
-0.98
-0.4
-0.74

> <PUBCHEM_SHAPE_SELFOVERLAP>
1059.527

> <PUBCHEM_SHAPE_VOLUME>
261.1

> <PUBCHEM_COORDINATE_TYPE>
2
5
10

$$$$
