8809
  -OEChem-07202406263D

 44 44  0     1  0  0  0  0  0999 V2000
    4.1765   -3.7428   -0.5564 Cl  0  0  0  0  0  0  0  0  0  0  0  0
    4.1120    0.7064    0.2906 S   0  0  1  0  0  0  0  0  0  0  0  0
    0.0676    1.3457   -0.9232 O   0  0  0  0  0  0  0  0  0  0  0  0
    2.5196    0.9422    0.3132 O   0  0  0  0  0  0  0  0  0  0  0  0
    4.1157   -0.8890    0.5249 O   0  0  0  0  0  0  0  0  0  0  0  0
    4.6165    0.9644   -1.0993 O   0  0  0  0  0  0  0  0  0  0  0  0
   -4.9713   -0.8810    0.2943 C   0  0  0  0  0  0  0  0  0  0  0  0
   -3.5982   -0.2740   -0.0379 C   0  0  0  0  0  0  0  0  0  0  0  0
   -5.6990   -1.2660   -1.0120 C   0  0  0  0  0  0  0  0  0  0  0  0
   -5.9051    0.0737    1.0724 C   0  0  0  0  0  0  0  0  0  0  0  0
   -4.7846   -2.1439    1.1627 C   0  0  0  0  0  0  0  0  0  0  0  0
   -3.3374    1.0092    0.3728 C   0  0  0  0  0  0  0  0  0  0  0  0
   -2.6961   -1.0432   -0.7289 C   0  0  0  0  0  0  0  0  0  0  0  0
   -1.1479    0.8090   -0.6288 C   0  0  0  0  0  0  0  0  0  0  0  0
   -2.0915    1.5598    0.0722 C   0  0  0  0  0  0  0  0  0  0  0  0
   -1.4501   -0.4925   -1.0293 C   0  0  0  0  0  0  0  0  0  0  0  0
    0.5875    2.3142   -0.0135 C   0  0  0  0  0  0  0  0  0  0  0  0
    2.1095    2.2598   -0.0494 C   0  0  1  0  0  0  0  0  0  0  0  0
    2.7251    3.2523    0.9252 C   0  0  0  0  0  0  0  0  0  0  0  0
    5.3899   -1.5057    0.4048 C   0  0  0  0  0  0  0  0  0  0  0  0
    5.2612   -2.9985    0.6457 C   0  0  0  0  0  0  0  0  0  0  0  0
   -5.1642   -2.0371   -1.5770 H   0  0  0  0  0  0  0  0  0  0  0  0
   -6.7001   -1.6618   -0.8037 H   0  0  0  0  0  0  0  0  0  0  0  0
   -5.8154   -0.3966   -1.6700 H   0  0  0  0  0  0  0  0  0  0  0  0
   -6.8675   -0.4097    1.2822 H   0  0  0  0  0  0  0  0  0  0  0  0
   -5.4826    0.3614    2.0423 H   0  0  0  0  0  0  0  0  0  0  0  0
   -6.1305    0.9827    0.5023 H   0  0  0  0  0  0  0  0  0  0  0  0
   -4.2374   -1.9120    2.0842 H   0  0  0  0  0  0  0  0  0  0  0  0
   -4.2310   -2.9322    0.6409 H   0  0  0  0  0  0  0  0  0  0  0  0
   -5.7524   -2.5720    1.4495 H   0  0  0  0  0  0  0  0  0  0  0  0
   -4.0334    1.6378    0.9133 H   0  0  0  0  0  0  0  0  0  0  0  0
   -2.9088   -2.0570   -1.0501 H   0  0  0  0  0  0  0  0  0  0  0  0
   -1.9060    2.5854    0.3777 H   0  0  0  0  0  0  0  0  0  0  0  0
   -0.7186   -1.0821   -1.5753 H   0  0  0  0  0  0  0  0  0  0  0  0
    2.4367    2.4703   -1.0760 H   0  0  0  0  0  0  0  0  0  0  0  0
    0.2340    3.3097   -0.3050 H   0  0  0  0  0  0  0  0  0  0  0  0
    0.2678    2.0929    1.0138 H   0  0  0  0  0  0  0  0  0  0  0  0
    3.8033    3.3709    0.7773 H   0  0  0  0  0  0  0  0  0  0  0  0
    2.2822    4.2459    0.7962 H   0  0  0  0  0  0  0  0  0  0  0  0
    2.5701    2.9402    1.9642 H   0  0  0  0  0  0  0  0  0  0  0  0
    5.8088   -1.3283   -0.5938 H   0  0  0  0  0  0  0  0  0  0  0  0
    6.0749   -1.0825    1.1497 H   0  0  0  0  0  0  0  0  0  0  0  0
    6.2336   -3.4938    0.5774 H   0  0  0  0  0  0  0  0  0  0  0  0
    4.8253   -3.1973    1.6290 H   0  0  0  0  0  0  0  0  0  0  0  0
  1 21  1  0  0  0  0
  2  4  1  0  0  0  0
  2  5  1  0  0  0  0
  2  6  2  0  0  0  0
  3 14  1  0  0  0  0
  3 17  1  0  0  0  0
  4 18  1  0  0  0  0
  5 20  1  0  0  0  0
  7  8  1  0  0  0  0
  7  9  1  0  0  0  0
  7 10  1  0  0  0  0
  7 11  1  0  0  0  0
  8 12  2  0  0  0  0
  8 13  1  0  0  0  0
  9 22  1  0  0  0  0
  9 23  1  0  0  0  0
  9 24  1  0  0  0  0
 10 25  1  0  0  0  0
 10 26  1  0  0  0  0
 10 27  1  0  0  0  0
 11 28  1  0  0  0  0
 11 29  1  0  0  0  0
 11 30  1  0  0  0  0
 12 15  1  0  0  0  0
 12 31  1  0  0  0  0
 13 16  2  0  0  0  0
 13 32  1  0  0  0  0
 14 15  2  0  0  0  0
 14 16  1  0  0  0  0
 15 33  1  0  0  0  0
 16 34  1  0  0  0  0
 17 18  1  0  0  0  0
 17 36  1  0  0  0  0
 17 37  1  0  0  0  0
 18 19  1  0  0  0  0
 18 35  1  0  0  0  0
 19 38  1  0  0  0  0
 19 39  1  0  0  0  0
 19 40  1  0  0  0  0
 20 21  1  0  0  0  0
 20 41  1  0  0  0  0
 20 42  1  0  0  0  0
 21 43  1  0  0  0  0
 21 44  1  0  0  0  0
M  END
> <PUBCHEM_COMPOUND_CID>
8809

> <PUBCHEM_CONFORMER_RMSD>
1

> <PUBCHEM_CONFORMER_DIVERSEORDER>
1
69
26
106
128
97
147
6
71
52
146
75
73
160
93
16
2
53
58
109
131
164
12
102
83
51
155
67
81
135
9
165
86
30
99
44
151
159
108
35
140
124
65
168
91
115
129
47
55
145
24
85
148
20
113
17
153
10
105
18
15
41
127
5
62
50
68
38
13
63
31
8
122
4
161
117
39
154
150
166
90
28
139
79
7
136
89
123
104
126
27
74
134
54
49
34
88
92
48
103
119
132
14
45
114
29
57
56
121
70
42
78
21
95
77
33
32
60
143
169
64
167
76
84
40
141
46
22
137
144
120
3
43
80
72
158
19
82
138
98
118
111
156
59
11
96
61
162
37
36
112
94
23
116
100
87
157
25
66
163
110
142
152
130
101
149
133
125
107

> <PUBCHEM_MMFF94_PARTIAL_CHARGES>
21
1 -0.29
12 -0.15
13 -0.15
14 0.08
15 -0.15
16 -0.15
17 0.28
18 0.28
2 0.6
20 0.28
21 0.29
3 -0.36
31 0.15
32 0.15
33 0.15
34 0.15
4 -0.33
5 -0.33
6 -0.5
7 0.14
8 -0.14

> <PUBCHEM_EFFECTIVE_ROTOR_COUNT>
9

> <PUBCHEM_PHARMACOPHORE_FEATURES>
4
1 3 acceptor
1 6 acceptor
4 7 9 10 11 hydrophobe
6 8 12 13 14 15 16 rings

> <PUBCHEM_HEAVY_ATOM_COUNT>
21

> <PUBCHEM_ATOM_DEF_STEREO_COUNT>
0

> <PUBCHEM_ATOM_UDEF_STEREO_COUNT>
2

> <PUBCHEM_BOND_DEF_STEREO_COUNT>
0

> <PUBCHEM_BOND_UDEF_STEREO_COUNT>
0

> <PUBCHEM_ISOTOPIC_ATOM_COUNT>
0

> <PUBCHEM_COMPONENT_COUNT>
1

> <PUBCHEM_CACTVS_TAUTO_COUNT>
1

> <PUBCHEM_CONFORMER_ID>
0000226900000001

> <PUBCHEM_MMFF94_ENERGY>
63.075

> <PUBCHEM_FEATURE_SELFOVERLAP>
20.297

> <PUBCHEM_SHAPE_FINGERPRINT>
10498660 4 8574423266666955030
12107183 9 18199194983952609945
12596602 18 17131832105420091090
12633257 1 15841256113129096176
12821665 9 8934699095190154345
12839892 36 17203047490989416655
13533116 47 18411135883006846033
13551218 46 18412262822380313183
13785724 45 18128831737358951582
13911852 28 18339637841656079270
13914758 101 18341888598736853357
13955234 65 18197213865979092224
14251764 30 18335983052395003626
14420673 8 18267024946832724522
14774955 27 9727631709143075032
14866123 147 18051129185925653801
15250474 111 18128806624416594950
15352361 1 18338231558084537690
15537594 2 18342738559336439742
17859628 70 18411135879250117832
17959699 21 9655308020374629357
1813 80 17749106707782383820
1979834 28 17417816102170557486
212916 134 15267348443836530229
21682296 61 18410855439102225015
22950370 63 18335706018324643424
23559900 14 18187922941310792857
239999 70 17604422037397986360
270888 7 9799393543618105362
2838139 119 10087645879230362746
2916195 48 11887959852252950285
3004659 81 18113335285297023138
314194 84 18412260666322431438
3421961 26 18411976979785943960
345986 75 17846501413489781664
3472631 163 8430311355218688168
34797466 226 15936700362160028317
46194498 28 17458062690513293100
465052 167 18412268362935331692
474 4 9799698107948791188
5104073 3 18129952290279534809
56633871 153 18130218259976336006
59682541 35 18340192056822018144
6422251 121 18043811983187588635
7970288 3 18409726287514879163
88748 71 18335700482296265850

> <PUBCHEM_SHAPE_MULTIPOLES>
414.41
15.2
3.77
1.07
0.95
1.17
-0.01
11.53
2.78
-6.47
0.43
0.55
0.17
0.04

> <PUBCHEM_SHAPE_SELFOVERLAP>
810.384

> <PUBCHEM_SHAPE_VOLUME>
254.9

> <PUBCHEM_COORDINATE_TYPE>
2
5
10

$$$$
