90363
  -OEChem-07202400513D

 22 23  0     0  0  0  0  0  0999 V2000
    3.1282    2.6334    0.5887 Cl  0  0  0  0  0  0  0  0  0  0  0  0
    3.1276   -2.6336   -0.5895 Cl  0  0  0  0  0  0  0  0  0  0  0  0
   -1.7048   -2.1845    0.7995 O   0  0  0  0  0  0  0  0  0  0  0  0
   -1.7037    2.1845   -0.7997 O   0  0  0  0  0  0  0  0  0  0  0  0
   -1.2575    0.0000    0.0004 N   0  0  0  0  0  0  0  0  0  0  0  0
   -3.4695   -0.7521    0.0646 C   0  0  0  0  0  0  0  0  0  0  0  0
   -3.4693    0.7529   -0.0656 C   0  0  0  0  0  0  0  0  0  0  0  0
   -2.0360   -1.0983    0.3436 C   0  0  0  0  0  0  0  0  0  0  0  0
   -2.0354    1.0986   -0.3436 C   0  0  0  0  0  0  0  0  0  0  0  0
    0.1752   -0.0002    0.0008 C   0  0  0  0  0  0  0  0  0  0  0  0
    0.8725   -1.1790   -0.2632 C   0  0  0  0  0  0  0  0  0  0  0  0
    0.8727    1.1787    0.2643 C   0  0  0  0  0  0  0  0  0  0  0  0
    2.2675    1.1787    0.2637 C   0  0  0  0  0  0  0  0  0  0  0  0
    2.2673   -1.1790   -0.2637 C   0  0  0  0  0  0  0  0  0  0  0  0
    2.9649   -0.0001   -0.0003 C   0  0  0  0  0  0  0  0  0  0  0  0
   -3.7721   -1.2358   -0.8697 H   0  0  0  0  0  0  0  0  0  0  0  0
   -4.1192   -1.0883    0.8770 H   0  0  0  0  0  0  0  0  0  0  0  0
   -3.7723    1.2366    0.8686 H   0  0  0  0  0  0  0  0  0  0  0  0
   -4.1183    1.0893   -0.8784 H   0  0  0  0  0  0  0  0  0  0  0  0
    0.3506   -2.1010   -0.5034 H   0  0  0  0  0  0  0  0  0  0  0  0
    0.3509    2.1007    0.5047 H   0  0  0  0  0  0  0  0  0  0  0  0
    4.0528   -0.0001   -0.0008 H   0  0  0  0  0  0  0  0  0  0  0  0
  1 13  1  0  0  0  0
  2 14  1  0  0  0  0
  3  8  2  0  0  0  0
  4  9  2  0  0  0  0
  5  8  1  0  0  0  0
  5  9  1  0  0  0  0
  5 10  1  0  0  0  0
  6  7  1  0  0  0  0
  6  8  1  0  0  0  0
  6 16  1  0  0  0  0
  6 17  1  0  0  0  0
  7  9  1  0  0  0  0
  7 18  1  0  0  0  0
  7 19  1  0  0  0  0
 10 11  2  0  0  0  0
 10 12  1  0  0  0  0
 11 14  1  0  0  0  0
 11 20  1  0  0  0  0
 12 13  2  0  0  0  0
 12 21  1  0  0  0  0
 13 15  1  0  0  0  0
 14 15  2  0  0  0  0
 15 22  1  0  0  0  0
M  END
> <PUBCHEM_COMPOUND_CID>
90363

> <PUBCHEM_CONFORMER_RMSD>
0.6

> <PUBCHEM_CONFORMER_DIVERSEORDER>
1
2
3

> <PUBCHEM_MMFF94_PARTIAL_CHARGES>
18
1 -0.18
10 0.12
11 -0.15
12 -0.15
13 0.18
14 0.18
15 -0.15
2 -0.18
20 0.15
21 0.15
22 0.15
3 -0.57
4 -0.57
5 -0.24
6 0.06
7 0.06
8 0.57
9 0.57

> <PUBCHEM_EFFECTIVE_ROTOR_COUNT>
1.6

> <PUBCHEM_PHARMACOPHORE_FEATURES>
4
1 3 acceptor
1 4 acceptor
5 5 6 7 8 9 rings
6 10 11 12 13 14 15 rings

> <PUBCHEM_HEAVY_ATOM_COUNT>
15

> <PUBCHEM_ATOM_DEF_STEREO_COUNT>
0

> <PUBCHEM_ATOM_UDEF_STEREO_COUNT>
0

> <PUBCHEM_BOND_DEF_STEREO_COUNT>
0

> <PUBCHEM_BOND_UDEF_STEREO_COUNT>
0

> <PUBCHEM_ISOTOPIC_ATOM_COUNT>
0

> <PUBCHEM_COMPONENT_COUNT>
1

> <PUBCHEM_CACTVS_TAUTO_COUNT>
3

> <PUBCHEM_CONFORMER_ID>
000160FB00000001

> <PUBCHEM_MMFF94_ENERGY>
38.4805

> <PUBCHEM_FEATURE_SELFOVERLAP>
20.297

> <PUBCHEM_SHAPE_FINGERPRINT>
10608611 8 18410007736742664061
10967382 1 18338517550765255616
11132069 177 18190456258518222265
12932764 1 17749387010089967137
13380535 21 18338247049430031768
13380535 76 18337665442180913722
13897977 150 18339640147947976553
14648413 74 18411698768688647768
15219456 202 18411136965206644857
15375462 6 18338799017310371900
15442244 35 18198628722346800624
15775835 57 17916023645140516596
16945 1 18408604759863027590
17804303 29 18264497191085840575
17990270 104 18412543180786800650
18186145 218 18262233301281868061
18380122 1 18264489666292341544
19049666 15 18337670810942703256
19591789 44 15605131206375582568
19973954 147 18410573963729680524
200 152 17774710992461514975
20201158 50 18412826867313005099
20510252 161 18410854374134906745
20588541 1 18337953510154145193
20645477 70 18342170055668746023
20671657 53 17985556554797576302
21501502 16 18412544314494396097
21524375 3 17913204545183449352
221490 88 18410864265143928174
22802520 49 18408892827736006443
23402539 116 18191853725386808487
23557571 272 17822006523542665757
23559900 14 18340199700893457658
2748010 2 18335709393947333591
3084891 72 17330547644913664860
5104073 3 18409731768267072449
6049 1 18334869298164569569
69090 78 18413101763022310575
7364860 26 18342457045673211908
74978 22 18340209578959386474
81228 2 18113343033107016265
8809292 202 18336272223504559554
9709674 26 18410575097643485023

> <PUBCHEM_SHAPE_MULTIPOLES>
295.71
6.13
2.77
0.75
1.4
0
0
0
0
-2.36
0
0.03
0
1.19

> <PUBCHEM_SHAPE_SELFOVERLAP>
618.904

> <PUBCHEM_SHAPE_VOLUME>
170.3

> <PUBCHEM_COORDINATE_TYPE>
2
5
10

$$$$
