9051
  -OEChem-07192423513D

 51 54  0     1  0  0  0  0  0999 V2000
   -5.5103   -0.1339    0.2279 O   0  0  0  0  0  0  0  0  0  0  0  0
    6.1355   -0.3409   -0.4366 O   0  0  0  0  0  0  0  0  0  0  0  0
   -2.2403   -0.1907    0.3050 C   0  0  1  0  0  0  0  0  0  0  0  0
   -1.2843    0.9325   -0.1412 C   0  0  2  0  0  0  0  0  0  0  0  0
   -0.0685    1.0921    0.7778 C   0  0  1  0  0  0  0  0  0  0  0  0
    0.7242   -0.2481    0.9648 C   0  0  1  0  0  0  0  0  0  0  0  0
   -3.3441   -0.0264   -0.7638 C   0  0  2  0  0  0  0  0  0  0  0  0
   -1.4664   -1.5089    0.2239 C   0  0  0  0  0  0  0  0  0  0  0  0
   -2.2199    2.1260   -0.3369 C   0  0  0  0  0  0  0  0  0  0  0  0
   -0.2087   -1.4884    1.1056 C   0  0  0  0  0  0  0  0  0  0  0  0
    1.9522   -0.4415   -0.0202 C   0  0  1  0  0  0  0  0  0  0  0  0
   -3.5002    1.5001   -0.9175 C   0  0  0  0  0  0  0  0  0  0  0  0
   -2.8159    0.0005    1.7325 C   0  0  0  0  0  0  0  0  0  0  0  0
    0.8074    2.2322    0.3401 C   0  0  0  0  0  0  0  0  0  0  0  0
    2.7907    0.8422   -0.0857 C   0  0  0  0  0  0  0  0  0  0  0  0
    2.8595   -1.5872    0.5257 C   0  0  0  0  0  0  0  0  0  0  0  0
   -4.6371   -0.7019   -0.4263 C   0  0  0  0  0  0  0  0  0  0  0  0
    1.5124   -0.7998   -1.4558 C   0  0  0  0  0  0  0  0  0  0  0  0
    2.0883    2.1094   -0.0216 C   0  0  0  0  0  0  0  0  0  0  0  0
    4.1947   -1.7157   -0.1976 C   0  0  0  0  0  0  0  0  0  0  0  0
    4.1301    0.8545   -0.1983 C   0  0  0  0  0  0  0  0  0  0  0  0
    4.9177   -0.3973   -0.2727 C   0  0  0  0  0  0  0  0  0  0  0  0
   -4.8170   -2.1089   -0.9289 C   0  0  0  0  0  0  0  0  0  0  0  0
   -0.9117    0.6892   -1.1452 H   0  0  0  0  0  0  0  0  0  0  0  0
   -0.4346    1.3800    1.7725 H   0  0  0  0  0  0  0  0  0  0  0  0
    1.1947   -0.1457    1.9578 H   0  0  0  0  0  0  0  0  0  0  0  0
   -3.0004   -0.4198   -1.7306 H   0  0  0  0  0  0  0  0  0  0  0  0
   -1.1823   -1.7176   -0.8134 H   0  0  0  0  0  0  0  0  0  0  0  0
   -2.0986   -2.3465    0.5394 H   0  0  0  0  0  0  0  0  0  0  0  0
   -1.8007    2.8727   -1.0191 H   0  0  0  0  0  0  0  0  0  0  0  0
   -2.4348    2.6283    0.6129 H   0  0  0  0  0  0  0  0  0  0  0  0
   -0.5315   -1.5375    2.1540 H   0  0  0  0  0  0  0  0  0  0  0  0
    0.3359   -2.4225    0.9466 H   0  0  0  0  0  0  0  0  0  0  0  0
   -4.3783    1.9147   -0.4118 H   0  0  0  0  0  0  0  0  0  0  0  0
   -3.5995    1.7557   -1.9792 H   0  0  0  0  0  0  0  0  0  0  0  0
   -2.0369    0.0833    2.4950 H   0  0  0  0  0  0  0  0  0  0  0  0
   -3.4358    0.8986    1.8180 H   0  0  0  0  0  0  0  0  0  0  0  0
   -3.4400   -0.8546    2.0168 H   0  0  0  0  0  0  0  0  0  0  0  0
    0.3754    3.2299    0.3652 H   0  0  0  0  0  0  0  0  0  0  0  0
    2.3549   -2.5569    0.4601 H   0  0  0  0  0  0  0  0  0  0  0  0
    3.0628   -1.4136    1.5917 H   0  0  0  0  0  0  0  0  0  0  0  0
    0.8711   -0.0351   -1.8983 H   0  0  0  0  0  0  0  0  0  0  0  0
    2.3692   -0.8933   -2.1332 H   0  0  0  0  0  0  0  0  0  0  0  0
    0.9819   -1.7560   -1.4862 H   0  0  0  0  0  0  0  0  0  0  0  0
    2.6433    3.0124   -0.2642 H   0  0  0  0  0  0  0  0  0  0  0  0
    4.0644   -2.0986   -1.2146 H   0  0  0  0  0  0  0  0  0  0  0  0
    4.8272   -2.4236    0.3499 H   0  0  0  0  0  0  0  0  0  0  0  0
    4.6970    1.7797   -0.2447 H   0  0  0  0  0  0  0  0  0  0  0  0
   -4.6602   -2.1399   -2.0100 H   0  0  0  0  0  0  0  0  0  0  0  0
   -4.1212   -2.7820   -0.4262 H   0  0  0  0  0  0  0  0  0  0  0  0
   -5.8379   -2.4414   -0.7198 H   0  0  0  0  0  0  0  0  0  0  0  0
  1 17  2  0  0  0  0
  2 22  2  0  0  0  0
  3  4  1  0  0  0  0
  3  7  1  0  0  0  0
  3  8  1  0  0  0  0
  3 13  1  0  0  0  0
  4  5  1  0  0  0  0
  4  9  1  0  0  0  0
  4 24  1  0  0  0  0
  5  6  1  0  0  0  0
  5 14  1  0  0  0  0
  5 25  1  0  0  0  0
  6 10  1  0  0  0  0
  6 11  1  0  0  0  0
  6 26  1  0  0  0  0
  7 12  1  0  0  0  0
  7 17  1  0  0  0  0
  7 27  1  0  0  0  0
  8 10  1  0  0  0  0
  8 28  1  0  0  0  0
  8 29  1  0  0  0  0
  9 12  1  0  0  0  0
  9 30  1  0  0  0  0
  9 31  1  0  0  0  0
 10 32  1  0  0  0  0
 10 33  1  0  0  0  0
 11 15  1  0  0  0  0
 11 16  1  0  0  0  0
 11 18  1  0  0  0  0
 12 34  1  0  0  0  0
 12 35  1  0  0  0  0
 13 36  1  0  0  0  0
 13 37  1  0  0  0  0
 13 38  1  0  0  0  0
 14 19  2  0  0  0  0
 14 39  1  0  0  0  0
 15 19  1  0  0  0  0
 15 21  2  0  0  0  0
 16 20  1  0  0  0  0
 16 40  1  0  0  0  0
 16 41  1  0  0  0  0
 17 23  1  0  0  0  0
 18 42  1  0  0  0  0
 18 43  1  0  0  0  0
 18 44  1  0  0  0  0
 19 45  1  0  0  0  0
 20 22  1  0  0  0  0
 20 46  1  0  0  0  0
 20 47  1  0  0  0  0
 21 22  1  0  0  0  0
 21 48  1  0  0  0  0
 23 49  1  0  0  0  0
 23 50  1  0  0  0  0
 23 51  1  0  0  0  0
M  END
> <PUBCHEM_COMPOUND_CID>
9051

> <PUBCHEM_CONFORMER_RMSD>
0.6

> <PUBCHEM_CONFORMER_DIVERSEORDER>
1
2

> <PUBCHEM_MMFF94_PARTIAL_CHARGES>
16
1 -0.57
11 0.14
14 -0.29
15 -0.14
17 0.45
19 -0.15
2 -0.57
20 0.06
21 -0.14
22 0.49
23 0.06
39 0.15
45 0.15
48 0.15
5 0.14
7 0.06

> <PUBCHEM_EFFECTIVE_ROTOR_COUNT>
2.4

> <PUBCHEM_PHARMACOPHORE_FEATURES>
6
1 1 acceptor
1 2 acceptor
5 3 4 7 9 12 rings
6 11 15 16 20 21 22 rings
6 3 4 5 6 8 10 rings
6 5 6 11 14 15 19 rings

> <PUBCHEM_HEAVY_ATOM_COUNT>
23

> <PUBCHEM_ATOM_DEF_STEREO_COUNT>
6

> <PUBCHEM_ATOM_UDEF_STEREO_COUNT>
0

> <PUBCHEM_BOND_DEF_STEREO_COUNT>
0

> <PUBCHEM_BOND_UDEF_STEREO_COUNT>
0

> <PUBCHEM_ISOTOPIC_ATOM_COUNT>
0

> <PUBCHEM_COMPONENT_COUNT>
1

> <PUBCHEM_CACTVS_TAUTO_COUNT>
6

> <PUBCHEM_CONFORMER_ID>
0000235B00000001

> <PUBCHEM_MMFF94_ENERGY>
74.7121

> <PUBCHEM_FEATURE_SELFOVERLAP>
30.551

> <PUBCHEM_SHAPE_FINGERPRINT>
10366900 7 17821445767974459192
10498660 4 17240748550515205493
11089746 13 12107788531545353734
12011746 2 18260546727442956836
12166972 35 17968099733084253012
12236239 1 17704357683816200376
12403259 226 18411129251604136909
12403259 415 18113890568264849253
12403260 363 18335417972000380192
12596599 1 17988379112851877223
12670546 177 18411979178455654751
13224815 77 17846501400646823662
13288520 33 18272653437001871037
13583140 156 15357705205553262888
13862211 1 18410292485286125738
13944108 23 16170286835926589517
14115302 16 17822581593650975542
14576447 43 18411695491765887278
14790565 3 17474952021839369081
15196674 1 18409165476533935148
15788980 27 18408042896789565764
16945 1 18336267954507495096
17349148 13 17989489619195134338
17492 89 18268427923849699518
18681886 176 18413103975325723632
19784866 170 10159701308583765064
19784866 240 17988931075714446517
19862831 5 18261391113713270592
200 152 18202845443896907992
20645477 70 18342177778262407252
20871999 31 18336542733498140397
21033648 29 17894618275625358957
21267235 1 18411707573545781726
21637258 2 16988552563862198663
221357 26 18408879633860347261
221490 88 18337112392090147483
22393880 68 18261381218124497005
23402539 116 18341330007310047996
23522609 53 18196121960458945521
23557571 272 18130510747021813585
23559900 14 18264203776300688904
2748010 2 17615413992062592105
2871803 45 18261666052023991869
3004659 81 18187364312305136596
335352 9 18411697682642255349
350125 39 18336265648569174745
351380 180 18408321098769127406
463206 1 18270677700538258879
465052 167 18130510832989939663
5104073 3 18411697655975848129
7495541 125 17988638648581810658
9709674 26 18335701701708054451

> <PUBCHEM_SHAPE_MULTIPOLES>
461.59
10.64
2.2
1.11
1.65
0.45
0.13
-3.4
-2.54
-0.25
-0.13
-0.56
-0.17
-0.06

> <PUBCHEM_SHAPE_SELFOVERLAP>
994.612

> <PUBCHEM_SHAPE_VOLUME>
252.8

> <PUBCHEM_COORDINATE_TYPE>
2
5
10

$$$$
