90756
  -OEChem-07202400553D

 35 36  0     1  0  0  0  0  0999 V2000
   -0.4633   -3.2671    2.1821 Cl  0  0  0  0  0  0  0  0  0  0  0  0
    0.2264   -4.6460   -0.6634 Cl  0  0  0  0  0  0  0  0  0  0  0  0
    0.2741    3.2728    0.0191 O   0  0  0  0  0  0  0  0  0  0  0  0
   -4.1491    0.4505    0.1947 O   0  0  0  0  0  0  0  0  0  0  0  0
   -2.8429    1.3182    1.8241 O   0  0  0  0  0  0  0  0  0  0  0  0
   -0.8016    1.1655   -0.3031 N   0  0  0  0  0  0  0  0  0  0  0  0
   -2.1490    1.6442   -0.4683 C   0  0  1  0  0  0  0  0  0  0  0  0
   -0.5497   -0.2769   -0.3757 C   0  0  0  0  0  0  0  0  0  0  0  0
    0.2983    2.0461   -0.0710 C   0  0  0  0  0  0  0  0  0  0  0  0
   -2.6926    1.2516   -1.8337 C   0  0  0  0  0  0  0  0  0  0  0  0
    1.6338    1.4337    0.0643 C   0  0  0  0  0  0  0  0  0  0  0  0
   -3.0656    1.1357    0.6320 C   0  0  0  0  0  0  0  0  0  0  0  0
   -0.6199   -0.9850    0.7842 C   0  0  0  0  0  0  0  0  0  0  0  0
   -0.2637   -0.8016   -1.5983 C   0  0  0  0  0  0  0  0  0  0  0  0
   -0.3796   -2.3573    0.7144 C   0  0  0  0  0  0  0  0  0  0  0  0
   -0.0235   -2.1737   -1.6682 C   0  0  0  0  0  0  0  0  0  0  0  0
    2.4141    1.2569   -1.0655 C   0  0  0  0  0  0  0  0  0  0  0  0
    2.0778    1.0497    1.3181 C   0  0  0  0  0  0  0  0  0  0  0  0
   -0.0815   -2.9516   -0.5118 C   0  0  0  0  0  0  0  0  0  0  0  0
    3.6768    0.6781   -0.9377 C   0  0  0  0  0  0  0  0  0  0  0  0
    3.3406    0.4711    1.4458 C   0  0  0  0  0  0  0  0  0  0  0  0
    4.1400    0.2853    0.3179 C   0  0  0  0  0  0  0  0  0  0  0  0
   -2.1599    2.7386   -0.4026 H   0  0  0  0  0  0  0  0  0  0  0  0
   -3.6622    1.7312   -2.0142 H   0  0  0  0  0  0  0  0  0  0  0  0
   -2.0190    1.5838   -2.6320 H   0  0  0  0  0  0  0  0  0  0  0  0
   -2.8454    0.1732   -1.9501 H   0  0  0  0  0  0  0  0  0  0  0  0
   -0.8411   -0.5097    1.7344 H   0  0  0  0  0  0  0  0  0  0  0  0
   -0.2090   -0.1989   -2.4983 H   0  0  0  0  0  0  0  0  0  0  0  0
    0.2097   -2.6197   -2.6319 H   0  0  0  0  0  0  0  0  0  0  0  0
    2.0616    1.5625   -2.0465 H   0  0  0  0  0  0  0  0  0  0  0  0
    1.4622    1.1933    2.2016 H   0  0  0  0  0  0  0  0  0  0  0  0
    4.2993    0.5336   -1.8159 H   0  0  0  0  0  0  0  0  0  0  0  0
    3.7013    0.1651    2.4234 H   0  0  0  0  0  0  0  0  0  0  0  0
    5.1231   -0.1653    0.4174 H   0  0  0  0  0  0  0  0  0  0  0  0
   -4.7079    0.1356    0.9368 H   0  0  0  0  0  0  0  0  0  0  0  0
  1 15  1  0  0  0  0
  2 19  1  0  0  0  0
  3  9  2  0  0  0  0
  4 12  1  0  0  0  0
  4 35  1  0  0  0  0
  5 12  2  0  0  0  0
  6  7  1  0  0  0  0
  6  8  1  0  0  0  0
  6  9  1  0  0  0  0
  7 10  1  0  0  0  0
  7 12  1  0  0  0  0
  7 23  1  0  0  0  0
  8 13  2  0  0  0  0
  8 14  1  0  0  0  0
  9 11  1  0  0  0  0
 10 24  1  0  0  0  0
 10 25  1  0  0  0  0
 10 26  1  0  0  0  0
 11 17  2  0  0  0  0
 11 18  1  0  0  0  0
 13 15  1  0  0  0  0
 13 27  1  0  0  0  0
 14 16  2  0  0  0  0
 14 28  1  0  0  0  0
 15 19  2  0  0  0  0
 16 19  1  0  0  0  0
 16 29  1  0  0  0  0
 17 20  1  0  0  0  0
 17 30  1  0  0  0  0
 18 21  2  0  0  0  0
 18 31  1  0  0  0  0
 20 22  2  0  0  0  0
 20 32  1  0  0  0  0
 21 22  1  0  0  0  0
 21 33  1  0  0  0  0
 22 34  1  0  0  0  0
M  END
> <PUBCHEM_COMPOUND_CID>
90756

> <PUBCHEM_CONFORMER_RMSD>
0.8

> <PUBCHEM_CONFORMER_DIVERSEORDER>
1
40
44
9
37
27
4
32
22
16
29
25
24
17
11
45
38
30
41
34
33
35
5
7
14
42
15
36
12
43
3
21
8
19
18
23
10
31
26
39
20
13
28
6
2

> <PUBCHEM_MMFF94_PARTIAL_CHARGES>
30
1 -0.18
11 0.09
12 0.66
13 -0.15
14 -0.15
15 0.18
16 -0.15
17 -0.15
18 -0.15
19 0.18
2 -0.18
20 -0.15
21 -0.15
22 -0.15
27 0.15
28 0.15
29 0.15
3 -0.57
30 0.15
31 0.15
32 0.15
33 0.15
34 0.15
35 0.5
4 -0.65
5 -0.57
6 -0.48
7 0.36
8 0.12
9 0.54

> <PUBCHEM_EFFECTIVE_ROTOR_COUNT>
5

> <PUBCHEM_PHARMACOPHORE_FEATURES>
6
1 3 acceptor
1 4 acceptor
1 5 acceptor
3 4 5 12 anion
6 11 17 18 20 21 22 rings
6 8 13 14 15 16 19 rings

> <PUBCHEM_HEAVY_ATOM_COUNT>
22

> <PUBCHEM_ATOM_DEF_STEREO_COUNT>
0

> <PUBCHEM_ATOM_UDEF_STEREO_COUNT>
1

> <PUBCHEM_BOND_DEF_STEREO_COUNT>
0

> <PUBCHEM_BOND_UDEF_STEREO_COUNT>
0

> <PUBCHEM_ISOTOPIC_ATOM_COUNT>
0

> <PUBCHEM_COMPONENT_COUNT>
1

> <PUBCHEM_CACTVS_TAUTO_COUNT>
1

> <PUBCHEM_CONFORMER_ID>
0001628400000001

> <PUBCHEM_MMFF94_ENERGY>
90.7652

> <PUBCHEM_FEATURE_SELFOVERLAP>
30.507

> <PUBCHEM_SHAPE_FINGERPRINT>
107951 10 17895771625169551346
10863032 1 14979948177420686068
12553582 1 17327746605083541898
12592029 89 18189878860642730029
12788726 201 17910105051415703423
13140716 1 18342175510161244966
133893 2 17905033760254281349
13681431 1 17617928141479520343
14178342 30 18270697376411182913
15309172 13 18411136926668431881
16752209 62 18191003793876040887
16945 1 18195515124396883199
19591789 44 18412545392368196502
20028762 73 18057608861942175567
20567600 347 18413111632667298287
20645476 183 18040714779596629844
20691752 17 18046936821103147365
20905425 154 17765436448387676124
21421861 104 17831310393421418105
21524375 3 18410290311320504363
21731516 1 17760931040885191158
22956985 138 18044938970011320235
23184049 29 17834664268963219988
23419403 2 17195224375004684038
23728640 28 18338782490745994786
3383291 50 18198063582673137358
35225 105 18190175870147028043
4340502 62 18343030961142597809
43471831 8 18268991981719404164
465052 167 17895207644307525713
5845 1 11332436953299848382
59755656 215 18268996384535824877
70251023 43 8140717597977619281
81228 2 17905029697167538681

> <PUBCHEM_SHAPE_MULTIPOLES>
433.9
5.15
4.43
1.78
2.94
5.22
-0.24
-3.36
-0.71
-2.26
0.07
-0.39
0.68
0.08

> <PUBCHEM_SHAPE_SELFOVERLAP>
914.276

> <PUBCHEM_SHAPE_VOLUME>
245.1

> <PUBCHEM_COORDINATE_TYPE>
2
5
10

$$$$
