9126
  -OEChem-07192423513D

 38 43  0     0  0  0  0  0  0999 V2000
   -0.1796    0.4369    0.0000 C   0  0  0  0  0  0  0  0  0  0  0  0
    1.0195    1.2041    0.0000 C   0  0  0  0  0  0  0  0  0  0  0  0
   -0.0959   -0.9760    0.0000 C   0  0  0  0  0  0  0  0  0  0  0  0
   -1.4549    1.0917    0.0003 C   0  0  0  0  0  0  0  0  0  0  0  0
    2.2925    0.5756   -0.0005 C   0  0  0  0  0  0  0  0  0  0  0  0
    1.1855   -1.6283    0.0002 C   0  0  0  0  0  0  0  0  0  0  0  0
    2.3762   -0.8527   -0.0005 C   0  0  0  0  0  0  0  0  0  0  0  0
    0.9396    2.6239    0.0002 C   0  0  0  0  0  0  0  0  0  0  0  0
   -2.6682    0.3270    0.0002 C   0  0  0  0  0  0  0  0  0  0  0  0
   -1.3173   -1.6885   -0.0003 C   0  0  0  0  0  0  0  0  0  0  0  0
   -2.5763   -1.0764   -0.0004 C   0  0  0  0  0  0  0  0  0  0  0  0
   -1.4677    2.5001    0.0007 C   0  0  0  0  0  0  0  0  0  0  0  0
   -0.2991    3.2515    0.0007 C   0  0  0  0  0  0  0  0  0  0  0  0
    3.4329    1.4210   -0.0006 C   0  0  0  0  0  0  0  0  0  0  0  0
    2.0937    3.4098    0.0001 C   0  0  0  0  0  0  0  0  0  0  0  0
    1.3280   -3.0450    0.0014 C   0  0  0  0  0  0  0  0  0  0  0  0
    3.6201   -1.5437   -0.0011 C   0  0  0  0  0  0  0  0  0  0  0  0
   -3.9800    0.8762    0.0004 C   0  0  0  0  0  0  0  0  0  0  0  0
    3.3387    2.8099   -0.0003 C   0  0  0  0  0  0  0  0  0  0  0  0
   -3.7373   -1.8730   -0.0009 C   0  0  0  0  0  0  0  0  0  0  0  0
    2.5647   -3.6877    0.0014 C   0  0  0  0  0  0  0  0  0  0  0  0
    3.7165   -2.9332   -0.0002 C   0  0  0  0  0  0  0  0  0  0  0  0
   -5.1268    0.0778    0.0000 C   0  0  0  0  0  0  0  0  0  0  0  0
   -5.0048   -1.3011   -0.0007 C   0  0  0  0  0  0  0  0  0  0  0  0
   -1.3116   -2.7768   -0.0008 H   0  0  0  0  0  0  0  0  0  0  0  0
   -2.3974    3.0624    0.0010 H   0  0  0  0  0  0  0  0  0  0  0  0
   -0.3789    4.3369    0.0009 H   0  0  0  0  0  0  0  0  0  0  0  0
    4.4411    1.0164   -0.0009 H   0  0  0  0  0  0  0  0  0  0  0  0
    2.0346    4.4960    0.0003 H   0  0  0  0  0  0  0  0  0  0  0  0
    0.4628   -3.7024    0.0025 H   0  0  0  0  0  0  0  0  0  0  0  0
    4.5658   -1.0083   -0.0021 H   0  0  0  0  0  0  0  0  0  0  0  0
   -4.1415    1.9509    0.0008 H   0  0  0  0  0  0  0  0  0  0  0  0
    4.2390    3.4171   -0.0004 H   0  0  0  0  0  0  0  0  0  0  0  0
   -3.6617   -2.9592   -0.0013 H   0  0  0  0  0  0  0  0  0  0  0  0
    2.6167   -4.7720    0.0023 H   0  0  0  0  0  0  0  0  0  0  0  0
    4.6899   -3.4136   -0.0005 H   0  0  0  0  0  0  0  0  0  0  0  0
   -6.1097    0.5394    0.0002 H   0  0  0  0  0  0  0  0  0  0  0  0
   -5.8891   -1.9305   -0.0010 H   0  0  0  0  0  0  0  0  0  0  0  0
  1  2  1  0  0  0  0
  1  3  1  0  0  0  0
  1  4  2  0  0  0  0
  2  5  1  0  0  0  0
  2  8  2  0  0  0  0
  3  6  1  0  0  0  0
  3 10  2  0  0  0  0
  4  9  1  0  0  0  0
  4 12  1  0  0  0  0
  5  7  1  0  0  0  0
  5 14  2  0  0  0  0
  6  7  1  0  0  0  0
  6 16  2  0  0  0  0
  7 17  2  0  0  0  0
  8 13  1  0  0  0  0
  8 15  1  0  0  0  0
  9 11  1  0  0  0  0
  9 18  2  0  0  0  0
 10 11  1  0  0  0  0
 10 25  1  0  0  0  0
 11 20  2  0  0  0  0
 12 13  2  0  0  0  0
 12 26  1  0  0  0  0
 13 27  1  0  0  0  0
 14 19  1  0  0  0  0
 14 28  1  0  0  0  0
 15 19  2  0  0  0  0
 15 29  1  0  0  0  0
 16 21  1  0  0  0  0
 16 30  1  0  0  0  0
 17 22  1  0  0  0  0
 17 31  1  0  0  0  0
 18 23  1  0  0  0  0
 18 32  1  0  0  0  0
 19 33  1  0  0  0  0
 20 24  1  0  0  0  0
 20 34  1  0  0  0  0
 21 22  2  0  0  0  0
 21 35  1  0  0  0  0
 22 36  1  0  0  0  0
 23 24  2  0  0  0  0
 23 37  1  0  0  0  0
 24 38  1  0  0  0  0
M  END
> <PUBCHEM_COMPOUND_CID>
9126

> <PUBCHEM_CONFORMER_RMSD>
0.6

> <PUBCHEM_CONFORMER_DIVERSEORDER>
1

> <PUBCHEM_MMFF94_PARTIAL_CHARGES>
28
10 -0.15
12 -0.15
13 -0.15
14 -0.15
15 -0.15
16 -0.15
17 -0.15
18 -0.15
19 -0.15
20 -0.15
21 -0.15
22 -0.15
23 -0.15
24 -0.15
25 0.15
26 0.15
27 0.15
28 0.15
29 0.15
30 0.15
31 0.15
32 0.15
33 0.15
34 0.15
35 0.15
36 0.15
37 0.15
38 0.15

> <PUBCHEM_EFFECTIVE_ROTOR_COUNT>
0

> <PUBCHEM_PHARMACOPHORE_FEATURES>
6
6 1 2 3 5 6 7 rings
6 1 2 4 8 12 13 rings
6 1 3 4 9 10 11 rings
6 2 5 8 14 15 19 rings
6 6 7 16 17 21 22 rings
6 9 11 18 20 23 24 rings

> <PUBCHEM_HEAVY_ATOM_COUNT>
24

> <PUBCHEM_ATOM_DEF_STEREO_COUNT>
0

> <PUBCHEM_ATOM_UDEF_STEREO_COUNT>
0

> <PUBCHEM_BOND_DEF_STEREO_COUNT>
0

> <PUBCHEM_BOND_UDEF_STEREO_COUNT>
0

> <PUBCHEM_ISOTOPIC_ATOM_COUNT>
0

> <PUBCHEM_COMPONENT_COUNT>
1

> <PUBCHEM_CACTVS_TAUTO_COUNT>
1

> <PUBCHEM_CONFORMER_ID>
000023A600000001

> <PUBCHEM_MMFF94_ENERGY>
99.6308

> <PUBCHEM_FEATURE_SELFOVERLAP>
30.614

> <PUBCHEM_SHAPE_FINGERPRINT>
10319926 262 16903824425666100920
10411042 1 18194402190954803942
10616163 171 18122345945884324851
10622 236 17844220000431329903
10693767 8 18130793382141270870
10967382 1 18338797939141620644
1100329 8 17979075977244565689
11578080 2 17314212389627887148
11963148 33 17903631131621957155
12107183 9 18054237536063527625
12403259 226 18263640667174625172
12553582 1 18194968443832605678
13009979 54 17845384249298486179
13140716 1 18124025995282720592
138480 1 18410855434553673252
14223421 5 18409444765240514356
14790565 3 18049167970619712572
14844126 61 17325765877535330722
14866123 147 17475797550664844683
15042514 8 17617657661851559746
15196674 1 18410575102439092517
15442244 35 18340208488301541329
15927050 60 18052539065502848502
16087824 20 17834116338833063093
16728300 4 17680668676596263584
16945 1 18338797797608328836
17492 89 18411138069573162619
19591789 44 17978231882941830710
19930381 70 18410009974467779811
20028762 73 17479740858808246319
20645477 70 18334850658423275371
20739085 24 18261389022212384252
20775438 99 17688259653013237109
20905425 154 18341619174668274540
21197605 99 17615699865687895867
21267235 1 18339369569567397191
21421861 104 18261669298655245393
221490 88 18408047320632605331
2334 1 18266740379706277544
23366157 5 18186802499689906150
23419403 2 18042667460338668478
23559900 14 18411130307986159137
2748010 2 18120944055499785852
3091708 16 9214876660558235266
335352 9 18194683666516492829
3421961 26 18411417293395380547
350125 39 18410292519440194136
352729 6 17472982182174423422
3882209 13 17180770019786147419
3886686 26 16316932004990443802
4409770 3 17179960731523495620
5104073 3 18409733971843881523
59755656 215 18409732885185428580
6138700 20 18410862092433490276
6443956 14 18408887300086703310
7364860 26 18411136965190755522
8272917 22 18340210786051028911
9709674 26 18335704979069307971
9981440 41 17977660140926708633

> <PUBCHEM_SHAPE_MULTIPOLES>
493.91
8.03
4.65
0.62
7.76
0.37
0
-2.94
0
-4.71
0
0
0
0

> <PUBCHEM_SHAPE_SELFOVERLAP>
1168.781

> <PUBCHEM_SHAPE_VOLUME>
222.9

> <PUBCHEM_COORDINATE_TYPE>
2
5
10

$$$$
