91664
  -OEChem-07202400303D

 27 27  0     0  0  0  0  0  0999 V2000
   -0.5031   -2.8081   -0.1029 Cl  0  0  0  0  0  0  0  0  0  0  0  0
   -0.2870    2.5050    1.0367 Cl  0  0  0  0  0  0  0  0  0  0  0  0
    1.9905   -1.1606   -1.9229 S   0  0  0  0  0  0  0  0  0  0  0  0
    2.0393   -0.0865   -0.2958 P   0  0  0  0  0  0  0  0  0  0  0  0
    0.8000   -0.2576    0.7353 O   0  0  0  0  0  0  0  0  0  0  0  0
    3.3064   -0.3504    0.6927 O   0  0  0  0  0  0  0  0  0  0  0  0
    2.1152    1.5295   -0.4701 O   0  0  0  0  0  0  0  0  0  0  0  0
   -0.5304   -0.1391    0.4356 C   0  0  0  0  0  0  0  0  0  0  0  0
   -3.2380    0.1018   -0.1767 C   0  0  0  0  0  0  0  0  0  0  0  0
   -1.2527   -1.2593    0.0300 C   0  0  0  0  0  0  0  0  0  0  0  0
   -1.1569    1.1012    0.5361 C   0  0  0  0  0  0  0  0  0  0  0  0
   -2.6081   -1.1386   -0.2764 C   0  0  0  0  0  0  0  0  0  0  0  0
   -2.5124    1.2217    0.2295 C   0  0  0  0  0  0  0  0  0  0  0  0
   -4.6877    0.2306   -0.5023 C   0  0  0  0  0  0  0  0  0  0  0  0
    3.4275   -1.5907    1.3687 C   0  0  0  0  0  0  0  0  0  0  0  0
    3.0974    2.1010   -1.3175 C   0  0  0  0  0  0  0  0  0  0  0  0
   -3.1774   -2.0103   -0.5914 H   0  0  0  0  0  0  0  0  0  0  0  0
   -3.0074    2.1872    0.3084 H   0  0  0  0  0  0  0  0  0  0  0  0
   -5.2905    0.0652    0.3962 H   0  0  0  0  0  0  0  0  0  0  0  0
   -4.9166    1.2249   -0.9005 H   0  0  0  0  0  0  0  0  0  0  0  0
   -4.9878   -0.4960   -1.2650 H   0  0  0  0  0  0  0  0  0  0  0  0
    4.3215   -1.5591    1.9964 H   0  0  0  0  0  0  0  0  0  0  0  0
    3.5302   -2.4058    0.6484 H   0  0  0  0  0  0  0  0  0  0  0  0
    2.5553   -1.7622    2.0045 H   0  0  0  0  0  0  0  0  0  0  0  0
    3.1796    3.1659   -1.0863 H   0  0  0  0  0  0  0  0  0  0  0  0
    2.7965    1.9885   -2.3619 H   0  0  0  0  0  0  0  0  0  0  0  0
    4.0684    1.6265   -1.1528 H   0  0  0  0  0  0  0  0  0  0  0  0
  1 10  1  0  0  0  0
  2 11  1  0  0  0  0
  3  4  2  0  0  0  0
  4  5  1  0  0  0  0
  4  6  1  0  0  0  0
  4  7  1  0  0  0  0
  5  8  1  0  0  0  0
  6 15  1  0  0  0  0
  7 16  1  0  0  0  0
  8 10  2  0  0  0  0
  8 11  1  0  0  0  0
  9 12  2  0  0  0  0
  9 13  1  0  0  0  0
  9 14  1  0  0  0  0
 10 12  1  0  0  0  0
 11 13  2  0  0  0  0
 12 17  1  0  0  0  0
 13 18  1  0  0  0  0
 14 19  1  0  0  0  0
 14 20  1  0  0  0  0
 14 21  1  0  0  0  0
 15 22  1  0  0  0  0
 15 23  1  0  0  0  0
 15 24  1  0  0  0  0
 16 25  1  0  0  0  0
 16 26  1  0  0  0  0
 16 27  1  0  0  0  0
M  END
> <PUBCHEM_COMPOUND_CID>
91664

> <PUBCHEM_CONFORMER_RMSD>
0.6

> <PUBCHEM_CONFORMER_DIVERSEORDER>
1
4
2
3

> <PUBCHEM_MMFF94_PARTIAL_CHARGES>
18
1 -0.18
10 0.18
11 0.18
12 -0.15
13 -0.15
14 0.14
15 0.28
16 0.28
17 0.15
18 0.15
2 -0.18
3 -0.68
4 1.49
5 -0.35
6 -0.55
7 -0.55
8 0.08
9 -0.14

> <PUBCHEM_EFFECTIVE_ROTOR_COUNT>
4

> <PUBCHEM_PHARMACOPHORE_FEATURES>
1
6 8 9 10 11 12 13 rings

> <PUBCHEM_HEAVY_ATOM_COUNT>
16

> <PUBCHEM_ATOM_DEF_STEREO_COUNT>
0

> <PUBCHEM_ATOM_UDEF_STEREO_COUNT>
0

> <PUBCHEM_BOND_DEF_STEREO_COUNT>
0

> <PUBCHEM_BOND_UDEF_STEREO_COUNT>
0

> <PUBCHEM_ISOTOPIC_ATOM_COUNT>
0

> <PUBCHEM_COMPONENT_COUNT>
1

> <PUBCHEM_CACTVS_TAUTO_COUNT>
1

> <PUBCHEM_CONFORMER_ID>
0001661000000001

> <PUBCHEM_MMFF94_ENERGY>
36.6186

> <PUBCHEM_FEATURE_SELFOVERLAP>
5.074

> <PUBCHEM_SHAPE_FINGERPRINT>
10062212 137 18339631266403923491
12507560 14 18335691694571521702
13583140 156 17458636635076414065
14115302 16 18410569600074309554
14178342 30 17909549458783361040
14614273 12 18192143794519186437
15207287 21 17775272863893302870
15375462 478 18341598284020972210
15775835 57 17967256424597561524
15852999 172 17846493708350451366
16945 1 18265908960000337035
1813 80 17025156207963260378
18186145 218 18335428949920802421
18619055 16 18336263534753850361
192875 21 18338509751189146244
19765921 60 17824547597930328440
20645476 183 18187933940220975663
20871999 31 18126571347679324143
21501502 16 18266173010062703695
2334 1 18341055215239055521
23402539 116 18129924711729959175
23419403 2 17979312513978588096
23463225 33 18337104583866152563
23557571 272 17775002323860811592
23559900 14 18272941501028360190
2748010 2 17335055050035157321
3286 77 17676765383729955829
474 4 17532659129666552324
5262128 65 17986420843655904204
537710 114 18412545427075912481
74978 22 18260556627601374490
81228 2 17987812799506780993
9981440 41 17609778961270183824

> <PUBCHEM_SHAPE_MULTIPOLES>
323.1
6.45
2.62
1.31
2.11
0.13
0.29
0.27
0.84
-0.82
-0.08
-1.38
-0.1
-0.94

> <PUBCHEM_SHAPE_SELFOVERLAP>
613.294

> <PUBCHEM_SHAPE_VOLUME>
203.3

> <PUBCHEM_COORDINATE_TYPE>
2
5
10

$$$$
