91689
  -OEChem-07202400573D

 31 31  0     0  0  0  0  0  0999 V2000
   -3.1111   -0.2419   -0.7015 S   0  0  0  0  0  0  0  0  0  0  0  0
    1.5077   -1.9672    0.3387 O   0  0  0  0  0  0  0  0  0  0  0  0
   -0.6334   -1.1654   -0.1426 N   0  0  0  0  0  0  0  0  0  0  0  0
    0.4733    1.3341   -0.3694 N   0  0  0  0  0  0  0  0  0  0  0  0
   -0.8945    1.1424   -0.5634 N   0  0  0  0  0  0  0  0  0  0  0  0
   -1.2602   -2.4052   -0.0427 N   0  0  0  0  0  0  0  0  0  0  0  0
    2.7063    0.5421    0.1286 C   0  0  0  0  0  0  0  0  0  0  0  0
    1.2334    0.3284   -0.0797 C   0  0  0  0  0  0  0  0  0  0  0  0
    3.4592   -0.3021   -0.9029 C   0  0  0  0  0  0  0  0  0  0  0  0
    3.0776    0.1026    1.5477 C   0  0  0  0  0  0  0  0  0  0  0  0
    3.0266    2.0271   -0.0647 C   0  0  0  0  0  0  0  0  0  0  0  0
    0.7203   -1.0745    0.0651 C   0  0  0  0  0  0  0  0  0  0  0  0
   -1.3825   -0.0493   -0.4486 C   0  0  0  0  0  0  0  0  0  0  0  0
   -3.7031    0.8482    0.6070 C   0  0  0  0  0  0  0  0  0  0  0  0
   -5.2196    0.8806    0.6283 C   0  0  0  0  0  0  0  0  0  0  0  0
    3.0275   -0.1881   -1.9044 H   0  0  0  0  0  0  0  0  0  0  0  0
    4.5074    0.0156   -0.9631 H   0  0  0  0  0  0  0  0  0  0  0  0
    3.4856   -1.3706   -0.6741 H   0  0  0  0  0  0  0  0  0  0  0  0
    3.0979   -0.9811    1.6893 H   0  0  0  0  0  0  0  0  0  0  0  0
    2.3819    0.5185    2.2862 H   0  0  0  0  0  0  0  0  0  0  0  0
    4.0817    0.4588    1.8079 H   0  0  0  0  0  0  0  0  0  0  0  0
    2.4909    2.6571    0.6553 H   0  0  0  0  0  0  0  0  0  0  0  0
    2.7695    2.3727   -1.0732 H   0  0  0  0  0  0  0  0  0  0  0  0
    4.0973    2.2167    0.0763 H   0  0  0  0  0  0  0  0  0  0  0  0
   -0.7939   -3.0334   -0.6961 H   0  0  0  0  0  0  0  0  0  0  0  0
   -1.0680   -2.7664    0.8910 H   0  0  0  0  0  0  0  0  0  0  0  0
   -3.3271    0.4940    1.5723 H   0  0  0  0  0  0  0  0  0  0  0  0
   -3.3241    1.8625    0.4462 H   0  0  0  0  0  0  0  0  0  0  0  0
   -5.6276    1.2583   -0.3155 H   0  0  0  0  0  0  0  0  0  0  0  0
   -5.6409   -0.1126    0.8178 H   0  0  0  0  0  0  0  0  0  0  0  0
   -5.5669    1.5443    1.4272 H   0  0  0  0  0  0  0  0  0  0  0  0
  1 13  1  0  0  0  0
  1 14  1  0  0  0  0
  2 12  2  0  0  0  0
  3  6  1  0  0  0  0
  3 12  1  0  0  0  0
  3 13  1  0  0  0  0
  4  5  1  0  0  0  0
  4  8  2  0  0  0  0
  5 13  2  0  0  0  0
  6 25  1  0  0  0  0
  6 26  1  0  0  0  0
  7  8  1  0  0  0  0
  7  9  1  0  0  0  0
  7 10  1  0  0  0  0
  7 11  1  0  0  0  0
  8 12  1  0  0  0  0
  9 16  1  0  0  0  0
  9 17  1  0  0  0  0
  9 18  1  0  0  0  0
 10 19  1  0  0  0  0
 10 20  1  0  0  0  0
 10 21  1  0  0  0  0
 11 22  1  0  0  0  0
 11 23  1  0  0  0  0
 11 24  1  0  0  0  0
 14 15  1  0  0  0  0
 14 27  1  0  0  0  0
 14 28  1  0  0  0  0
 15 29  1  0  0  0  0
 15 30  1  0  0  0  0
 15 31  1  0  0  0  0
M  END
> <PUBCHEM_COMPOUND_CID>
91689

> <PUBCHEM_CONFORMER_RMSD>
0.6

> <PUBCHEM_CONFORMER_DIVERSEORDER>
2
8
5
10
7
9
3
4
6
1

> <PUBCHEM_MMFF94_PARTIAL_CHARGES>
13
1 -0.37
12 0.63
13 0.65
14 0.23
2 -0.57
25 0.36
26 0.36
3 -0.11
4 -0.45
5 -0.45
6 -0.73
7 0.06
8 0.39

> <PUBCHEM_EFFECTIVE_ROTOR_COUNT>
3

> <PUBCHEM_PHARMACOPHORE_FEATURES>
6
1 15 hydrophobe
1 2 acceptor
1 4 acceptor
1 6 donor
4 7 9 10 11 hydrophobe
6 3 4 5 8 12 13 rings

> <PUBCHEM_HEAVY_ATOM_COUNT>
15

> <PUBCHEM_ATOM_DEF_STEREO_COUNT>
0

> <PUBCHEM_ATOM_UDEF_STEREO_COUNT>
0

> <PUBCHEM_BOND_DEF_STEREO_COUNT>
0

> <PUBCHEM_BOND_UDEF_STEREO_COUNT>
0

> <PUBCHEM_ISOTOPIC_ATOM_COUNT>
0

> <PUBCHEM_COMPONENT_COUNT>
1

> <PUBCHEM_CACTVS_TAUTO_COUNT>
1

> <PUBCHEM_CONFORMER_ID>
0001662900000002

> <PUBCHEM_MMFF94_ENERGY>
47.3904

> <PUBCHEM_FEATURE_SELFOVERLAP>
30.446

> <PUBCHEM_SHAPE_FINGERPRINT>
10465860 228 18270405984064425913
10980938 120 18410289177580916111
11132069 177 18342448244995325437
11471102 20 18410291384940853397
11543360 7 15769199657183810893
12251169 10 18261660533038534952
12382932 28 18409447016072078067
12932764 1 17676475181643502132
13140716 1 18263358251790045776
13380535 21 18407764745849036607
13581323 91 14706928445253779809
13583140 156 16515945047898374469
14144814 61 18335413590985850373
15309172 13 18335135380458565327
15775835 57 18408604794217692592
16945 1 18335409158648107878
17844478 74 17530961354689836245
18186145 218 18271802398006836613
18522853 295 18334853901186880822
19026448 4 16415476094794092087
200 152 7997969051346012429
20645477 70 18118387476670646415
21501502 16 18192986243547857004
2334 1 17902787797248267580
23402539 116 17917704703877364740
23559900 14 18341335583058638004
2748010 2 18119524594593891246
276578 36 18412545392394128419
449060 62 18412265021218640591
4990 188 17918002650185342711
5104073 3 18336823194756971059
53812653 166 18413103974291937201
633830 44 18342176691229525765
7364860 26 18199465476655629230
76465 3 8790623480399871784
9999458 23 18186529795400398198

> <PUBCHEM_SHAPE_MULTIPOLES>
286.75
7.64
1.87
0.97
7.29
0.57
0.19
-3.07
1.37
-0.37
0.03
-0.35
-0.06
-0.36

> <PUBCHEM_SHAPE_SELFOVERLAP>
566.653

> <PUBCHEM_SHAPE_VOLUME>
174.3

> <PUBCHEM_COORDINATE_TYPE>
2
5
10

$$$$
