91715
  -OEChem-07202400483D

 27 28  0     0  0  0  0  0  0999 V2000
    3.0859   -3.9211   -0.1407 Cl  0  0  0  0  0  0  0  0  0  0  0  0
    0.9822   -1.9003    0.4406 S   0  0  0  0  0  0  0  0  0  0  0  0
    2.6277    2.2965   -0.0861 F   0  0  0  0  0  0  0  0  0  0  0  0
    4.4904    1.3611    0.5133 F   0  0  0  0  0  0  0  0  0  0  0  0
    3.8769    1.3172   -1.5724 F   0  0  0  0  0  0  0  0  0  0  0  0
   -0.8799    0.2864    0.2856 O   0  0  0  0  0  0  0  0  0  0  0  0
    0.6021    1.8712    1.0283 O   0  0  0  0  0  0  0  0  0  0  0  0
    3.3884   -1.2699   -0.2632 N   0  0  0  0  0  0  0  0  0  0  0  0
   -3.2418    0.5286    0.1463 C   0  0  0  0  0  0  0  0  0  0  0  0
   -1.9561    1.1863    0.5199 C   0  0  0  0  0  0  0  0  0  0  0  0
    1.3957   -0.2613    0.3003 C   0  0  0  0  0  0  0  0  0  0  0  0
    2.6866   -0.0951   -0.0752 C   0  0  0  0  0  0  0  0  0  0  0  0
    0.3769    0.7505    0.5835 C   0  0  0  0  0  0  0  0  0  0  0  0
   -3.7331    0.6460   -1.1539 C   0  0  0  0  0  0  0  0  0  0  0  0
   -3.9528   -0.2035    1.0971 C   0  0  0  0  0  0  0  0  0  0  0  0
    3.3979    1.1813   -0.2959 C   0  0  0  0  0  0  0  0  0  0  0  0
   -4.9355    0.0312   -1.5032 C   0  0  0  0  0  0  0  0  0  0  0  0
   -5.1551   -0.8185    0.7478 C   0  0  0  0  0  0  0  0  0  0  0  0
    2.5899   -2.2853   -0.0196 C   0  0  0  0  0  0  0  0  0  0  0  0
   -5.6465   -0.7013   -0.5524 C   0  0  0  0  0  0  0  0  0  0  0  0
   -1.8124    2.0991   -0.0719 H   0  0  0  0  0  0  0  0  0  0  0  0
   -1.9736    1.4766    1.5780 H   0  0  0  0  0  0  0  0  0  0  0  0
   -3.1875    1.2119   -1.9043 H   0  0  0  0  0  0  0  0  0  0  0  0
   -3.5794   -0.3043    2.1127 H   0  0  0  0  0  0  0  0  0  0  0  0
   -5.3179    0.1219   -2.5157 H   0  0  0  0  0  0  0  0  0  0  0  0
   -5.7084   -1.3892    1.4880 H   0  0  0  0  0  0  0  0  0  0  0  0
   -6.5824   -1.1803   -0.8245 H   0  0  0  0  0  0  0  0  0  0  0  0
  1 19  1  0  0  0  0
  2 11  1  0  0  0  0
  2 19  1  0  0  0  0
  3 16  1  0  0  0  0
  4 16  1  0  0  0  0
  5 16  1  0  0  0  0
  6 10  1  0  0  0  0
  6 13  1  0  0  0  0
  7 13  2  0  0  0  0
  8 12  1  0  0  0  0
  8 19  2  0  0  0  0
  9 10  1  0  0  0  0
  9 14  2  0  0  0  0
  9 15  1  0  0  0  0
 10 21  1  0  0  0  0
 10 22  1  0  0  0  0
 11 12  2  0  0  0  0
 11 13  1  0  0  0  0
 12 16  1  0  0  0  0
 14 17  1  0  0  0  0
 14 23  1  0  0  0  0
 15 18  2  0  0  0  0
 15 24  1  0  0  0  0
 17 20  2  0  0  0  0
 17 25  1  0  0  0  0
 18 20  1  0  0  0  0
 18 26  1  0  0  0  0
 20 27  1  0  0  0  0
M  END
> <PUBCHEM_COMPOUND_CID>
91715

> <PUBCHEM_CONFORMER_RMSD>
0.8

> <PUBCHEM_CONFORMER_DIVERSEORDER>
1
21
20
25
4
15
7
2
14
22
18
3
19
5
16
11
24
10
6
26
12
27
17
13
9
8
23
28

> <PUBCHEM_MMFF94_PARTIAL_CHARGES>
25
1 -0.12
10 0.42
11 -0.05
12 0.05
13 0.81
14 -0.15
15 -0.15
16 1.2
17 -0.15
18 -0.15
19 0.5
2 -0.08
20 -0.15
23 0.15
24 0.15
25 0.15
26 0.15
27 0.15
3 -0.34
4 -0.34
5 -0.34
6 -0.43
7 -0.57
8 -0.57
9 -0.14

> <PUBCHEM_EFFECTIVE_ROTOR_COUNT>
5

> <PUBCHEM_PHARMACOPHORE_FEATURES>
4
1 7 acceptor
1 8 acceptor
5 2 8 11 12 19 rings
6 9 14 15 17 18 20 rings

> <PUBCHEM_HEAVY_ATOM_COUNT>
20

> <PUBCHEM_ATOM_DEF_STEREO_COUNT>
0

> <PUBCHEM_ATOM_UDEF_STEREO_COUNT>
0

> <PUBCHEM_BOND_DEF_STEREO_COUNT>
0

> <PUBCHEM_BOND_UDEF_STEREO_COUNT>
0

> <PUBCHEM_ISOTOPIC_ATOM_COUNT>
0

> <PUBCHEM_COMPONENT_COUNT>
1

> <PUBCHEM_CACTVS_TAUTO_COUNT>
1

> <PUBCHEM_CONFORMER_ID>
0001664300000001

> <PUBCHEM_MMFF94_ENERGY>
33.351

> <PUBCHEM_FEATURE_SELFOVERLAP>
20.298

> <PUBCHEM_SHAPE_FINGERPRINT>
11405975 8 18195529190720934113
12107183 9 17767416673504297481
12236239 1 17489594476062997105
12553582 1 17489866034055127589
12616999 72 18407761451830237848
12730499 353 18336273443259142234
12788726 201 17345768399742518665
128620 24 18411135853142658341
13009979 54 17630051442771549058
13533116 47 18343017788340861203
13675066 3 12103841263769562307
13836976 161 18334296517463784516
13911987 19 18191604144505402916
13955234 65 18341610434304202490
14576447 43 18272929431668870733
14863182 85 18272647923002854430
15375358 24 17603585244639927067
15375462 189 17988923362338226993
15502722 9 18408888416778180666
15537594 2 18131350852001102519
15961568 22 16515973665218048100
18186145 218 17604156908834111121
18222031 100 16200140011608229513
200 152 18272930536203563617
20281475 54 18271806774916043425
20645477 70 18335138661460489531
21033650 10 15937256564951923253
21054139 6 18128805524862424694
221490 88 18264493896893429762
22393880 68 17749946649093614891
235170 7 17894343372275334263
23557571 272 17385722496043292053
23559900 14 18263917744284367771
23596394 208 18186795860055510411
23598288 3 17630328537045342681
239999 70 18113337496588411682
2871803 45 18334293141619320835
3004659 81 18335979762154473555
3060560 45 18336833086710504300
312423 11 18199477579714655131
314194 84 18272650156269699891
33824 294 18410009940408786882
34797466 226 17240493524252779039
351380 3 17561083627105663839
46194498 28 17676770972178902925
5104073 3 18341614759494486497
5281201 14 18114464466047320341
58051976 378 18410857684937142872
59682541 52 18197189535521396205
59755656 215 18408324372315123646
633830 44 18041843905203090913
6913067 236 18188474874182612997
7164475 11 18269557126601911752
960060 61 18340476812394347005
9709674 26 18334582300266481779
9841814 1 16558736923596272763

> <PUBCHEM_SHAPE_MULTIPOLES>
378.77
11.57
2.79
1.1
11.29
2.18
-0.23
1.87
-2.43
-5.05
-0.03
0.88
-0.19
0.01

> <PUBCHEM_SHAPE_SELFOVERLAP>
792.435

> <PUBCHEM_SHAPE_VOLUME>
217.8

> <PUBCHEM_COORDINATE_TYPE>
2
5
10

$$$$
