91729
  -OEChem-07202400503D

 35 36  0     0  0  0  0  0  0999 V2000
   -2.4836   -0.2635    1.6809 S   0  0  0  0  0  0  0  0  0  0  0  0
   -4.0016    1.1559   -2.0140 S   0  0  0  0  0  0  0  0  0  0  0  0
   -2.3104    0.7616    2.6909 O   0  0  0  0  0  0  0  0  0  0  0  0
   -3.4602   -1.3238    1.8295 O   0  0  0  0  0  0  0  0  0  0  0  0
    0.1683    1.0257    0.7944 O   0  0  0  0  0  0  0  0  0  0  0  0
   -4.5670   -1.6818   -2.0821 O   0  0  0  0  0  0  0  0  0  0  0  0
   -2.8052   -2.2903   -0.7812 O   0  0  0  0  0  0  0  0  0  0  0  0
    4.3632    2.2352   -0.5510 O   0  0  0  0  0  0  0  0  0  0  0  0
   -0.9668   -0.9412    1.2852 N   0  0  0  0  0  0  0  0  0  0  0  0
    1.2682   -1.0281    0.6319 N   0  0  0  0  0  0  0  0  0  0  0  0
    3.4356   -1.6700    0.0355 N   0  0  0  0  0  0  0  0  0  0  0  0
    2.7942    0.6423    0.0438 N   0  0  0  0  0  0  0  0  0  0  0  0
    5.0272    0.0188   -0.5747 N   0  0  0  0  0  0  0  0  0  0  0  0
   -3.0743    0.6081    0.2833 C   0  0  0  0  0  0  0  0  0  0  0  0
   -3.4924    0.0001   -0.8578 C   0  0  0  0  0  0  0  0  0  0  0  0
   -3.1534    2.0123    0.2546 C   0  0  0  0  0  0  0  0  0  0  0  0
   -3.6483    2.4527   -0.9532 C   0  0  0  0  0  0  0  0  0  0  0  0
    0.1920   -0.1956    0.8858 C   0  0  0  0  0  0  0  0  0  0  0  0
   -3.5580   -1.3845   -1.2020 C   0  0  0  0  0  0  0  0  0  0  0  0
    2.5700   -0.6656    0.2146 C   0  0  0  0  0  0  0  0  0  0  0  0
    4.6484   -1.2515   -0.3607 C   0  0  0  0  0  0  0  0  0  0  0  0
    4.0485    0.9110   -0.3529 C   0  0  0  0  0  0  0  0  0  0  0  0
    5.6796   -2.3046   -0.5852 C   0  0  0  0  0  0  0  0  0  0  0  0
    3.3260    3.1766   -0.3156 C   0  0  0  0  0  0  0  0  0  0  0  0
   -2.8716    2.6903    1.0497 H   0  0  0  0  0  0  0  0  0  0  0  0
   -0.8949   -1.9663    1.3031 H   0  0  0  0  0  0  0  0  0  0  0  0
   -3.8185    3.4739   -1.2637 H   0  0  0  0  0  0  0  0  0  0  0  0
    1.1255   -2.0268    0.7535 H   0  0  0  0  0  0  0  0  0  0  0  0
    6.2262   -2.4902    0.3441 H   0  0  0  0  0  0  0  0  0  0  0  0
    5.2150   -3.2402   -0.9119 H   0  0  0  0  0  0  0  0  0  0  0  0
    6.3923   -1.9933   -1.3553 H   0  0  0  0  0  0  0  0  0  0  0  0
   -4.5873   -2.6383   -2.2990 H   0  0  0  0  0  0  0  0  0  0  0  0
    2.9972    3.1476    0.7287 H   0  0  0  0  0  0  0  0  0  0  0  0
    2.4823    3.0113   -0.9942 H   0  0  0  0  0  0  0  0  0  0  0  0
    3.7258    4.1755   -0.5142 H   0  0  0  0  0  0  0  0  0  0  0  0
  1  3  2  0  0  0  0
  1  4  2  0  0  0  0
  1  9  1  0  0  0  0
  1 14  1  0  0  0  0
  2 15  1  0  0  0  0
  2 17  1  0  0  0  0
  5 18  2  0  0  0  0
  6 19  1  0  0  0  0
  6 32  1  0  0  0  0
  7 19  2  0  0  0  0
  8 22  1  0  0  0  0
  8 24  1  0  0  0  0
  9 18  1  0  0  0  0
  9 26  1  0  0  0  0
 10 18  1  0  0  0  0
 10 20  1  0  0  0  0
 10 28  1  0  0  0  0
 11 20  1  0  0  0  0
 11 21  2  0  0  0  0
 12 20  2  0  0  0  0
 12 22  1  0  0  0  0
 13 21  1  0  0  0  0
 13 22  2  0  0  0  0
 14 15  2  0  0  0  0
 14 16  1  0  0  0  0
 15 19  1  0  0  0  0
 16 17  2  0  0  0  0
 16 25  1  0  0  0  0
 17 27  1  0  0  0  0
 21 23  1  0  0  0  0
 23 29  1  0  0  0  0
 23 30  1  0  0  0  0
 23 31  1  0  0  0  0
 24 33  1  0  0  0  0
 24 34  1  0  0  0  0
 24 35  1  0  0  0  0
M  END
> <PUBCHEM_COMPOUND_CID>
91729

> <PUBCHEM_CONFORMER_RMSD>
0.8

> <PUBCHEM_CONFORMER_DIVERSEORDER>
1
211
97
170
275
180
245
95
237
139
32
188
182
154
213
178
276
125
155
129
246
113
41
221
175
31
165
157
61
130
28
147
266
269
148
69
260
12
40
34
271
192
75
204
3
58
254
263
210
228
200
27
179
121
145
209
146
68
87
261
156
206
92
23
215
196
185
49
183
72
127
199
278
131
45
174
43
150
207
212
160
239
30
142
265
105
103
140
57
120
235
55
20
126
138
242
50
280
201
124
38
81
82
226
122
162
259
205
36
187
216
100
94
62
137
56
171
78
277
184
13
116
76
202
153
227
134
14
248
71
232
101
42
85
64
161
268
220
91
163
88
111
110
258
255
279
193
252
65
104
11
158
66
233
52
19
172
6
37
136
214
151
133
223
63
7
159
44
114
149
230
219
35
224
60
90
189
8
118
168
51
106
9
84
191
229
152
234
89
167
143
247
198
270
109
53
169
67
128
48
197
21
4
166
203
18
73
83
119
5
238
102
222
26
24
70
46
59
15
115
47
190
123
22
267
262
257
194
54
117
17
186
208
25
249
244
10
108
74
251
177
86
243
195
144
2
33
273
176
231
225
93
79
274
217
29
135
240
96
181
77
241
250
141
107
253
80
112
16
264
164
98
218
132
256
236
39
173
99
272

> <PUBCHEM_MMFF94_PARTIAL_CHARGES>
29
1 1.5
10 -0.55
11 -0.62
12 -0.62
13 -0.62
14 -0.06
15 -0.05
16 -0.15
17 -0.11
18 0.87
19 0.81
2 -0.08
20 0.74
21 0.48
22 0.7
23 0.14
24 0.28
25 0.15
26 0.42
27 0.15
28 0.37
3 -0.65
32 0.5
4 -0.65
5 -0.57
6 -0.65
7 -0.57
8 -0.36
9 -0.79

> <PUBCHEM_EFFECTIVE_ROTOR_COUNT>
7

> <PUBCHEM_PHARMACOPHORE_FEATURES>
12
1 10 donor
1 3 acceptor
1 4 acceptor
1 5 acceptor
1 6 acceptor
1 7 acceptor
1 9 donor
3 11 13 21 cation
3 12 13 22 cation
3 6 7 19 anion
5 2 14 15 16 17 rings
6 11 12 13 20 21 22 rings

> <PUBCHEM_HEAVY_ATOM_COUNT>
24

> <PUBCHEM_ATOM_DEF_STEREO_COUNT>
0

> <PUBCHEM_ATOM_UDEF_STEREO_COUNT>
0

> <PUBCHEM_BOND_DEF_STEREO_COUNT>
0

> <PUBCHEM_BOND_UDEF_STEREO_COUNT>
0

> <PUBCHEM_ISOTOPIC_ATOM_COUNT>
0

> <PUBCHEM_COMPONENT_COUNT>
1

> <PUBCHEM_CACTVS_TAUTO_COUNT>
9

> <PUBCHEM_CONFORMER_ID>
0001665100000001

> <PUBCHEM_MMFF94_ENERGY>
46.0178

> <PUBCHEM_FEATURE_SELFOVERLAP>
61.941

> <PUBCHEM_SHAPE_FINGERPRINT>
10928967 22 13254806758360348516
11545043 162 17240496801238888538
12363563 72 15554151636715415393
12616971 3 18130236990412551058
12670546 177 18341610446919981220
13583140 156 18187657859702167898
13944108 23 16458521627288811741
14251758 9 14274001196673320520
14251764 30 18055628667492082567
14251764 38 18040714826662500452
15131766 46 17983032316413280137
15788980 27 18411985728449527466
16994733 274 15214395891799202751
17349148 13 18131078099891687626
1813 80 14476961237291776737
18186145 218 17458349632534828680
18927931 339 15554447375136117158
20645477 56 17603877646008294129
20775530 9 16554226912020995407
21033648 144 18265343978870126622
21033648 29 17675928711574859256
21095088 737 18262231248219123629
21709351 56 18410579453241223342
22393880 68 18338506469887061414
22907989 373 17918269866329728589
23557571 272 17095816493924293355
23559900 14 17988343915172809448
312425 83 18410007706788487852
341906 21 15936403485583561580
497634 4 18267886006651028019
508706 21 17313098648673693645
5281201 14 18334023799999106732
531348 171 18196371412111459430
574716 61 18272088331254721508
59027123 10 18410852144460960173
5924683 9 9367334943245736373
59755656 520 17095527232472432219
633830 44 17894353263442422858

> <PUBCHEM_SHAPE_MULTIPOLES>
441.49
12.45
2.81
1.81
11.55
1.41
0.47
-1.19
-5.3
1.18
-0.78
-3.06
-0.36
0.15

> <PUBCHEM_SHAPE_SELFOVERLAP>
910.852

> <PUBCHEM_SHAPE_VOLUME>
253

> <PUBCHEM_COORDINATE_TYPE>
2
5
10

$$$$
