91727
  -OEChem-07202400533D

 35 37  0     1  0  0  0  0  0999 V2000
    0.3005    0.9912   -1.9461 F   0  0  0  0  0  0  0  0  0  0  0  0
    5.6568   -0.4595   -0.2320 F   0  0  0  0  0  0  0  0  0  0  0  0
   -0.1842   -0.9373    1.8092 O   0  0  0  0  0  0  0  0  0  0  0  0
   -2.1768   -1.5288   -0.2930 N   0  0  0  0  0  0  0  0  0  0  0  0
   -2.9377   -0.7341   -1.0374 N   0  0  0  0  0  0  0  0  0  0  0  0
   -4.1618   -2.0256    0.4000 N   0  0  0  0  0  0  0  0  0  0  0  0
    0.0785   -0.4859    0.4531 C   0  0  2  0  0  0  0  0  0  0  0  0
   -0.7190   -1.5055   -0.4538 C   0  0  0  0  0  0  0  0  0  0  0  0
    1.5585   -0.4789    0.2714 C   0  0  0  0  0  0  0  0  0  0  0  0
   -0.5424    0.9259    0.2721 C   0  0  0  0  0  0  0  0  0  0  0  0
    2.3595    0.3044    1.1022 C   0  0  0  0  0  0  0  0  0  0  0  0
    2.1419   -1.2560   -0.7293 C   0  0  0  0  0  0  0  0  0  0  0  0
   -0.3739    1.5490   -0.9309 C   0  0  0  0  0  0  0  0  0  0  0  0
   -1.2206    1.4598    1.3301 C   0  0  0  0  0  0  0  0  0  0  0  0
    3.7440    0.3109    0.9322 C   0  0  0  0  0  0  0  0  0  0  0  0
    3.5264   -1.2498   -0.8994 C   0  0  0  0  0  0  0  0  0  0  0  0
   -0.9325    2.8172   -1.0899 C   0  0  0  0  0  0  0  0  0  0  0  0
   -1.7792    2.7280    1.1710 C   0  0  0  0  0  0  0  0  0  0  0  0
   -2.8859   -2.2926    0.5560 C   0  0  0  0  0  0  0  0  0  0  0  0
    4.3275   -0.4663   -0.0685 C   0  0  0  0  0  0  0  0  0  0  0  0
   -1.6351    3.4067   -0.0389 C   0  0  0  0  0  0  0  0  0  0  0  0
   -4.1442   -1.0729   -0.5781 C   0  0  0  0  0  0  0  0  0  0  0  0
   -0.5497   -1.3189   -1.5220 H   0  0  0  0  0  0  0  0  0  0  0  0
   -0.3914   -2.5325   -0.2419 H   0  0  0  0  0  0  0  0  0  0  0  0
    1.9254    0.9134    1.8907 H   0  0  0  0  0  0  0  0  0  0  0  0
    1.5670   -1.8824   -1.4020 H   0  0  0  0  0  0  0  0  0  0  0  0
   -1.3571    0.9649    2.2842 H   0  0  0  0  0  0  0  0  0  0  0  0
    0.3038   -1.7673    1.9495 H   0  0  0  0  0  0  0  0  0  0  0  0
    4.3681    0.9200    1.5794 H   0  0  0  0  0  0  0  0  0  0  0  0
    3.9816   -1.8543   -1.6783 H   0  0  0  0  0  0  0  0  0  0  0  0
   -0.8202    3.3454   -2.0321 H   0  0  0  0  0  0  0  0  0  0  0  0
   -2.3272    3.1871    1.9887 H   0  0  0  0  0  0  0  0  0  0  0  0
   -2.4576   -3.0044    1.2475 H   0  0  0  0  0  0  0  0  0  0  0  0
   -2.0703    4.3941   -0.1630 H   0  0  0  0  0  0  0  0  0  0  0  0
   -5.0386   -0.6107   -0.9681 H   0  0  0  0  0  0  0  0  0  0  0  0
  1 13  1  0  0  0  0
  2 20  1  0  0  0  0
  3  7  1  0  0  0  0
  3 28  1  0  0  0  0
  4  5  1  0  0  0  0
  4  8  1  0  0  0  0
  4 19  1  0  0  0  0
  5 22  2  0  0  0  0
  6 19  2  0  0  0  0
  6 22  1  0  0  0  0
  7  8  1  0  0  0  0
  7  9  1  0  0  0  0
  7 10  1  0  0  0  0
  8 23  1  0  0  0  0
  8 24  1  0  0  0  0
  9 11  2  0  0  0  0
  9 12  1  0  0  0  0
 10 13  1  0  0  0  0
 10 14  2  0  0  0  0
 11 15  1  0  0  0  0
 11 25  1  0  0  0  0
 12 16  2  0  0  0  0
 12 26  1  0  0  0  0
 13 17  2  0  0  0  0
 14 18  1  0  0  0  0
 14 27  1  0  0  0  0
 15 20  2  0  0  0  0
 15 29  1  0  0  0  0
 16 20  1  0  0  0  0
 16 30  1  0  0  0  0
 17 21  1  0  0  0  0
 17 31  1  0  0  0  0
 18 21  2  0  0  0  0
 18 32  1  0  0  0  0
 19 33  1  0  0  0  0
 21 34  1  0  0  0  0
 22 35  1  0  0  0  0
M  END
> <PUBCHEM_COMPOUND_CID>
91727

> <PUBCHEM_CONFORMER_RMSD>
0.6

> <PUBCHEM_CONFORMER_DIVERSEORDER>
5
34
3
45
66
72
33
8
60
4
71
50
51
46
28
47
69
7
64
27
40
38
26
43
35
63
59
23
2
48
56
24
67
41
55
20
6
1
68
21
52
74
19
61
42
15
31
37
62
16
65
18
30
57
32
49
75
54
53
39
14
22
36
70
13
25
29
58
10
44
73
9
76
17
12
11

> <PUBCHEM_MMFF94_PARTIAL_CHARGES>
33
1 -0.19
10 -0.14
11 -0.15
12 -0.15
13 0.19
14 -0.15
15 -0.15
16 -0.15
17 -0.15
18 -0.15
19 0.04
2 -0.19
20 0.19
21 -0.15
22 0.37
25 0.15
26 0.15
27 0.15
28 0.4
29 0.15
3 -0.68
30 0.15
31 0.15
32 0.15
33 0.15
34 0.15
35 0.15
4 0.31
5 -0.71
6 -0.57
7 0.57
8 0.26
9 -0.14

> <PUBCHEM_EFFECTIVE_ROTOR_COUNT>
4

> <PUBCHEM_PHARMACOPHORE_FEATURES>
7
1 3 acceptor
1 3 donor
3 4 6 19 cation
3 5 6 22 cation
5 4 5 6 19 22 rings
6 10 13 14 17 18 21 rings
6 9 11 12 15 16 20 rings

> <PUBCHEM_HEAVY_ATOM_COUNT>
22

> <PUBCHEM_ATOM_DEF_STEREO_COUNT>
0

> <PUBCHEM_ATOM_UDEF_STEREO_COUNT>
1

> <PUBCHEM_BOND_DEF_STEREO_COUNT>
0

> <PUBCHEM_BOND_UDEF_STEREO_COUNT>
0

> <PUBCHEM_ISOTOPIC_ATOM_COUNT>
0

> <PUBCHEM_COMPONENT_COUNT>
1

> <PUBCHEM_CACTVS_TAUTO_COUNT>
1

> <PUBCHEM_CONFORMER_ID>
0001664F00000005

> <PUBCHEM_MMFF94_ENERGY>
58.7978

> <PUBCHEM_FEATURE_SELFOVERLAP>
38.297

> <PUBCHEM_SHAPE_FINGERPRINT>
10165383 225 17763766298910418940
104564 63 18340482275508234179
11101153 10 18264216966915570484
11578080 2 16198993224821506387
11582403 64 15723870941725293997
11833330 49 18335135397216818069
121448 382 17749388131271772962
12788726 201 18335696122324199259
13132413 78 18125717044282375241
13134695 92 17986103244136586157
13149001 5 17607804207931484875
13544653 18 18200590410025700311
13681431 1 18047755081203067393
14955137 171 17765164155861179154
16945 1 18335977575952530641
17357779 13 18271511070533268069
1813 80 18337114574113037711
200 152 16515682247682059898
20600515 1 18057901310016462411
21041028 32 18337398261530506401
21285901 2 18201999906865892959
21330990 113 18131079207624016979
21501502 16 18193834851966494154
22112679 90 18193584291995444957
22182313 1 17845635011697221088
23175994 123 18337952406732645911
23402539 116 18335698360271445086
23419403 2 17975380780392845661
23557571 272 18411418405992467790
23558518 356 18190188892609318786
23559900 14 18270676464114821302
238 59 16820505061582224885
283562 15 18410290293982633243
5104073 3 18200022938310655986
68521 5 18410008836406967333
7364860 26 17834392706876380583
7399639 24 18129647717089765360
81228 2 18335989692028879553
9981440 41 16767546238132398194

> <PUBCHEM_SHAPE_MULTIPOLES>
417.39
7.32
3.14
1.36
6.7
2.23
0.01
-4.22
-0.27
-3.86
-0.1
-0.06
0.36
0.31

> <PUBCHEM_SHAPE_SELFOVERLAP>
920.331

> <PUBCHEM_SHAPE_VOLUME>
224.9

> <PUBCHEM_COORDINATE_TYPE>
2
5
10

$$$$
