91741
  -OEChem-07202400543D

 37 38  0     0  0  0  0  0  0999 V2000
    3.8104   -3.0058    0.1138 Cl  0  0  0  0  0  0  0  0  0  0  0  0
    3.5354    2.3601    0.9499 Cl  0  0  0  0  0  0  0  0  0  0  0  0
    5.3168    1.1284   -1.1218 F   0  0  0  0  0  0  0  0  0  0  0  0
    5.4327   -1.0459   -1.4458 F   0  0  0  0  0  0  0  0  0  0  0  0
    7.3846    0.9855    0.6520 F   0  0  0  0  0  0  0  0  0  0  0  0
    7.8566    0.2185   -1.3300 F   0  0  0  0  0  0  0  0  0  0  0  0
   -4.3842   -1.8396    0.8593 F   0  0  0  0  0  0  0  0  0  0  0  0
   -6.2540    2.1138   -0.9939 F   0  0  0  0  0  0  0  0  0  0  0  0
    4.8973   -0.2746    0.6252 O   0  0  0  0  0  0  0  0  0  0  0  0
   -1.2746    1.7453    0.5138 O   0  0  0  0  0  0  0  0  0  0  0  0
   -4.0312    2.0849    0.3742 O   0  0  0  0  0  0  0  0  0  0  0  0
   -0.6322   -0.4920    0.1992 N   0  0  0  0  0  0  0  0  0  0  0  0
   -2.8580    0.0875    0.1328 N   0  0  0  0  0  0  0  0  0  0  0  0
    0.7769   -0.4367    0.3087 C   0  0  0  0  0  0  0  0  0  0  0  0
    3.5371   -0.3280    0.5207 C   0  0  0  0  0  0  0  0  0  0  0  0
    1.5138   -1.6022    0.1748 C   0  0  0  0  0  0  0  0  0  0  0  0
    1.3915    0.7819    0.5463 C   0  0  0  0  0  0  0  0  0  0  0  0
    2.9035   -1.5475    0.2816 C   0  0  0  0  0  0  0  0  0  0  0  0
    2.7811    0.8366    0.6530 C   0  0  0  0  0  0  0  0  0  0  0  0
    5.6658   -0.0512   -0.5553 C   0  0  0  0  0  0  0  0  0  0  0  0
   -5.2871    0.1551   -0.0612 C   0  0  0  0  0  0  0  0  0  0  0  0
   -1.5424    0.5651    0.3033 C   0  0  0  0  0  0  0  0  0  0  0  0
   -4.0355    0.8579    0.1748 C   0  0  0  0  0  0  0  0  0  0  0  0
    7.1327   -0.0297   -0.2112 C   0  0  0  0  0  0  0  0  0  0  0  0
   -5.4118   -1.1873    0.2970 C   0  0  0  0  0  0  0  0  0  0  0  0
   -6.3627    0.8235   -0.6459 C   0  0  0  0  0  0  0  0  0  0  0  0
   -6.6119   -1.8610    0.0707 C   0  0  0  0  0  0  0  0  0  0  0  0
   -7.5629    0.1498   -0.8722 C   0  0  0  0  0  0  0  0  0  0  0  0
   -7.6874   -1.1925   -0.5140 C   0  0  0  0  0  0  0  0  0  0  0  0
    1.0149   -2.5503   -0.0117 H   0  0  0  0  0  0  0  0  0  0  0  0
    0.8622    1.7168    0.6577 H   0  0  0  0  0  0  0  0  0  0  0  0
   -1.0211   -1.4152    0.0241 H   0  0  0  0  0  0  0  0  0  0  0  0
   -2.9453   -0.9059   -0.0614 H   0  0  0  0  0  0  0  0  0  0  0  0
    7.4751   -0.9666    0.2366 H   0  0  0  0  0  0  0  0  0  0  0  0
   -6.7086   -2.9061    0.3497 H   0  0  0  0  0  0  0  0  0  0  0  0
   -8.4003    0.6704   -1.3273 H   0  0  0  0  0  0  0  0  0  0  0  0
   -8.6219   -1.7172   -0.6903 H   0  0  0  0  0  0  0  0  0  0  0  0
  1 18  1  0  0  0  0
  2 19  1  0  0  0  0
  3 20  1  0  0  0  0
  4 20  1  0  0  0  0
  5 24  1  0  0  0  0
  6 24  1  0  0  0  0
  7 25  1  0  0  0  0
  8 26  1  0  0  0  0
  9 15  1  0  0  0  0
  9 20  1  0  0  0  0
 10 22  2  0  0  0  0
 11 23  2  0  0  0  0
 12 14  1  0  0  0  0
 12 22  1  0  0  0  0
 12 32  1  0  0  0  0
 13 22  1  0  0  0  0
 13 23  1  0  0  0  0
 13 33  1  0  0  0  0
 14 16  2  0  0  0  0
 14 17  1  0  0  0  0
 15 18  2  0  0  0  0
 15 19  1  0  0  0  0
 16 18  1  0  0  0  0
 16 30  1  0  0  0  0
 17 19  2  0  0  0  0
 17 31  1  0  0  0  0
 20 24  1  0  0  0  0
 21 23  1  0  0  0  0
 21 25  2  0  0  0  0
 21 26  1  0  0  0  0
 24 34  1  0  0  0  0
 25 27  1  0  0  0  0
 26 28  2  0  0  0  0
 27 29  2  0  0  0  0
 27 35  1  0  0  0  0
 28 29  1  0  0  0  0
 28 36  1  0  0  0  0
 29 37  1  0  0  0  0
M  END
> <PUBCHEM_COMPOUND_CID>
91741

> <PUBCHEM_CONFORMER_RMSD>
1

> <PUBCHEM_CONFORMER_DIVERSEORDER>
1
23
5
29
39
21
31
20
35
17
15
30
22
26
28
13
11
24
36
4
9
19
34
10
32
14
6
38
27
3
16
33
18
8
12
7
25
37
40
2

> <PUBCHEM_MMFF94_PARTIAL_CHARGES>
36
1 -0.18
10 -0.57
11 -0.57
12 -0.55
13 -0.49
14 0.12
15 0.08
16 -0.15
17 -0.15
18 0.18
19 0.18
2 -0.18
20 0.96
21 0.09
22 0.69
23 0.54
24 0.68
25 0.19
26 0.19
27 -0.15
28 -0.15
29 -0.15
3 -0.34
30 0.15
31 0.15
32 0.37
33 0.37
35 0.15
36 0.15
37 0.15
4 -0.34
5 -0.34
6 -0.34
7 -0.19
8 -0.19
9 -0.36

> <PUBCHEM_EFFECTIVE_ROTOR_COUNT>
8

> <PUBCHEM_PHARMACOPHORE_FEATURES>
7
1 10 acceptor
1 11 acceptor
1 12 donor
1 13 donor
1 9 acceptor
6 14 15 16 17 18 19 rings
6 21 25 26 27 28 29 rings

> <PUBCHEM_HEAVY_ATOM_COUNT>
29

> <PUBCHEM_ATOM_DEF_STEREO_COUNT>
0

> <PUBCHEM_ATOM_UDEF_STEREO_COUNT>
0

> <PUBCHEM_BOND_DEF_STEREO_COUNT>
0

> <PUBCHEM_BOND_UDEF_STEREO_COUNT>
0

> <PUBCHEM_ISOTOPIC_ATOM_COUNT>
0

> <PUBCHEM_COMPONENT_COUNT>
1

> <PUBCHEM_CACTVS_TAUTO_COUNT>
5

> <PUBCHEM_CONFORMER_ID>
0001665D00000001

> <PUBCHEM_MMFF94_ENERGY>
76.2108

> <PUBCHEM_FEATURE_SELFOVERLAP>
35.577

> <PUBCHEM_SHAPE_FINGERPRINT>
10299344 5 18131072632556568635
10595046 47 18336827489966970003
10835480 77 18337664227517727645
10968037 39 18408884036755596443
11315181 36 18272370876464077521
11524674 6 16128372701625021279
11719270 70 18411131412405496178
11963148 33 18410847780886139338
12166972 35 18412828014386356233
12516196 113 18201997729491286977
13668630 136 17275387612139069303
14123256 10 18410855464433685091
14170010 4 17846494864276675688
14933364 13 18409729560748930821
150020 25 18341896294558482060
15064986 266 18409168797814733825
15183329 4 18408323267722363369
15348495 7 10447631518583255807
1577012 14 18271526386571463513
15849732 13 18343864433120102708
17844677 252 18413673513442992249
18335252 98 18408045117657416835
18608769 82 18412541045924284570
18681886 176 18411414046511160673
20105231 36 17988932183880021135
21150785 3 18186521011970744533
21267235 1 18202004343482453305
21344244 181 17060069125376359670
21774942 28 14707475950320585391
221357 26 18273496758785252264
23522609 53 18055945171383289633
23559900 14 18410567401826670209
23576562 1 18117289262128119468
3004659 81 18334008410957413585
335352 9 18410580587834970822
34797466 226 16845575336056479576
4073 2 18113341886409160835
4325135 7 18333732429227926775
45377200 153 16558461006830035335
484989 97 18269559501650027571
497634 4 18339642244667808349
504579 68 18341607119027345325
59755656 215 18410293609860818394

> <PUBCHEM_SHAPE_MULTIPOLES>
529.33
24.24
2.26
0.95
8.5
0.42
-0.18
1.08
-7
-0.03
0.3
-0.67
-0.1
0.87

> <PUBCHEM_SHAPE_SELFOVERLAP>
1127.174

> <PUBCHEM_SHAPE_VOLUME>
293.6

> <PUBCHEM_COORDINATE_TYPE>
2
5
10

$$$$
