91749
  -OEChem-07202400503D

 23 24  0     0  0  0  0  0  0999 V2000
    3.6060    1.1338   -0.0486 Cl  0  0  0  0  0  0  0  0  0  0  0  0
    1.6237   -2.1792   -1.0223 O   0  0  0  0  0  0  0  0  0  0  0  0
    2.7201   -1.7365    0.9080 O   0  0  0  0  0  0  0  0  0  0  0  0
   -0.8480   -1.3580    0.0646 N   0  0  0  0  0  0  0  0  0  0  0  0
   -0.9098    1.0499   -0.0102 C   0  0  0  0  0  0  0  0  0  0  0  0
   -0.2086   -0.1737    0.0229 C   0  0  0  0  0  0  0  0  0  0  0  0
    1.1829   -0.1317    0.0111 C   0  0  0  0  0  0  0  0  0  0  0  0
   -2.3105    1.0082    0.0017 C   0  0  0  0  0  0  0  0  0  0  0  0
   -2.9721   -0.2105    0.0447 C   0  0  0  0  0  0  0  0  0  0  0  0
   -0.2101    2.2678   -0.0536 C   0  0  0  0  0  0  0  0  0  0  0  0
    1.8787    1.0789   -0.0321 C   0  0  0  0  0  0  0  0  0  0  0  0
    1.1818    2.2804   -0.0645 C   0  0  0  0  0  0  0  0  0  0  0  0
   -2.2007   -1.3546    0.0746 C   0  0  0  0  0  0  0  0  0  0  0  0
   -4.4568   -0.2813    0.0581 C   0  0  0  0  0  0  0  0  0  0  0  0
    1.9233   -1.3934    0.0456 C   0  0  0  0  0  0  0  0  0  0  0  0
   -2.8844    1.9326   -0.0244 H   0  0  0  0  0  0  0  0  0  0  0  0
   -0.7461    3.2140   -0.0793 H   0  0  0  0  0  0  0  0  0  0  0  0
    1.7038    3.2329   -0.0987 H   0  0  0  0  0  0  0  0  0  0  0  0
   -2.6525   -2.3413    0.1071 H   0  0  0  0  0  0  0  0  0  0  0  0
   -4.8069   -1.2036    0.5340 H   0  0  0  0  0  0  0  0  0  0  0  0
   -4.8840    0.5538    0.6236 H   0  0  0  0  0  0  0  0  0  0  0  0
   -4.8450   -0.2486   -0.9648 H   0  0  0  0  0  0  0  0  0  0  0  0
    2.1176   -3.0265   -1.0026 H   0  0  0  0  0  0  0  0  0  0  0  0
  1 11  1  0  0  0  0
  2 15  1  0  0  0  0
  2 23  1  0  0  0  0
  3 15  2  0  0  0  0
  4  6  1  0  0  0  0
  4 13  2  0  0  0  0
  5  6  2  0  0  0  0
  5  8  1  0  0  0  0
  5 10  1  0  0  0  0
  6  7  1  0  0  0  0
  7 11  2  0  0  0  0
  7 15  1  0  0  0  0
  8  9  2  0  0  0  0
  8 16  1  0  0  0  0
  9 13  1  0  0  0  0
  9 14  1  0  0  0  0
 10 12  2  0  0  0  0
 10 17  1  0  0  0  0
 11 12  1  0  0  0  0
 12 18  1  0  0  0  0
 13 19  1  0  0  0  0
 14 20  1  0  0  0  0
 14 21  1  0  0  0  0
 14 22  1  0  0  0  0
M  END
> <PUBCHEM_COMPOUND_CID>
91749

> <PUBCHEM_CONFORMER_RMSD>
0.4

> <PUBCHEM_CONFORMER_DIVERSEORDER>
1
2

> <PUBCHEM_MMFF94_PARTIAL_CHARGES>
19
1 -0.18
10 -0.15
11 0.18
12 -0.15
13 0.16
14 0.14
15 0.63
16 0.15
17 0.15
18 0.15
19 0.15
2 -0.65
23 0.5
3 -0.57
4 -0.62
6 0.31
7 0.09
8 -0.15
9 -0.14

> <PUBCHEM_EFFECTIVE_ROTOR_COUNT>
1

> <PUBCHEM_PHARMACOPHORE_FEATURES>
6
1 2 acceptor
1 3 acceptor
1 4 acceptor
3 2 3 15 anion
6 4 5 6 8 9 13 rings
6 5 6 7 10 11 12 rings

> <PUBCHEM_HEAVY_ATOM_COUNT>
15

> <PUBCHEM_ATOM_DEF_STEREO_COUNT>
0

> <PUBCHEM_ATOM_UDEF_STEREO_COUNT>
0

> <PUBCHEM_BOND_DEF_STEREO_COUNT>
0

> <PUBCHEM_BOND_UDEF_STEREO_COUNT>
0

> <PUBCHEM_ISOTOPIC_ATOM_COUNT>
0

> <PUBCHEM_COMPONENT_COUNT>
1

> <PUBCHEM_CACTVS_TAUTO_COUNT>
1

> <PUBCHEM_CONFORMER_ID>
0001666500000001

> <PUBCHEM_MMFF94_ENERGY>
47.7262

> <PUBCHEM_FEATURE_SELFOVERLAP>
30.541

> <PUBCHEM_SHAPE_FINGERPRINT>
10967382 1 18410575114738412489
10980938 120 18411704309038236397
11132069 177 18338512066313896160
11471102 20 18410289242079278693
11578080 2 16807557380642185766
12346645 6 18342459269986353399
12382932 28 18411418440193879232
12524768 44 18412268306889863959
13140716 1 18050287273509023113
13221675 6 18339929315179323013
13380535 76 18337391655153562259
14144814 61 18412548704098756801
14576447 43 18056464287496060703
14790565 3 16756932395072018884
15219456 202 18335133176982255965
15442244 35 18339645529837397713
15536298 74 18343022185648568992
16945 1 18337388361035101857
17990270 104 18412547582780009055
193761 8 18194684769890746212
20201158 50 18336828683930889857
20511035 2 17684656810790345716
20559304 39 18411700997534120225
20588541 1 18336267941448415733
20645476 183 17246125398767068732
20645477 70 18410851054198896951
20871998 22 18269558230255233518
21267235 1 18410019822854436122
21501502 16 18339082579504278592
21501925 9 18337943515543506571
2334 1 18338235968514946637
23402655 69 18341323453770326813
23463225 33 18408601474429505904
23552423 10 18263927820351341053
23559900 14 16830373170416783790
2748010 2 18265610987801275301
3060560 45 18130794494252534830
34934 24 18411412955568160221
4072396 5 18263906865327346888
528886 8 18339921644346737312
53812653 166 18341330114547346832
53812654 25 18201425978643395703
63268167 104 18410014351276980849
7364860 26 18342740736520854888
81228 2 17906459826650773816
8809292 202 18043252538011019059

> <PUBCHEM_SHAPE_MULTIPOLES>
293.84
5.63
2.4
0.7
3.13
0.02
0.02
-0.45
-0.26
-1.4
0.12
-0.18
-0.17
-0.06

> <PUBCHEM_SHAPE_SELFOVERLAP>
638.014

> <PUBCHEM_SHAPE_VOLUME>
162.1

> <PUBCHEM_COORDINATE_TYPE>
2
5
10

$$$$
