91743
  -OEChem-07202400443D

 48 49  0     1  0  0  0  0  0999 V2000
   -5.4274    2.0350    1.9460 Cl  0  0  0  0  0  0  0  0  0  0  0  0
   -6.7313   -2.5660   -0.1573 F   0  0  0  0  0  0  0  0  0  0  0  0
   -5.5308   -2.6435   -1.9619 F   0  0  0  0  0  0  0  0  0  0  0  0
   -4.8405   -3.6399   -0.1566 F   0  0  0  0  0  0  0  0  0  0  0  0
    2.6100    2.3964   -0.8773 O   0  0  0  0  0  0  0  0  0  0  0  0
    5.1329   -0.0628   -0.2445 O   0  0  0  0  0  0  0  0  0  0  0  0
    5.8854   -2.5960    0.6911 O   0  0  0  0  0  0  0  0  0  0  0  0
   -2.6058    2.0874    0.9103 O   0  0  0  0  0  0  0  0  0  0  0  0
    4.8225    2.0585    0.6054 O   0  0  0  0  0  0  0  0  0  0  0  0
   -2.6980    0.0545   -0.2016 N   0  0  0  0  0  0  0  0  0  0  0  0
    3.2985    1.1695   -1.0634 C   0  0  1  0  0  0  0  0  0  0  0  0
    1.3145    2.3195   -0.4333 C   0  0  0  0  0  0  0  0  0  0  0  0
    3.7199    1.0808   -2.5197 C   0  0  0  0  0  0  0  0  0  0  0  0
    4.4982    1.1415   -0.1380 C   0  0  0  0  0  0  0  0  0  0  0  0
    6.2744   -0.2355    0.6014 C   0  0  0  0  0  0  0  0  0  0  0  0
    6.8614   -1.6137    0.3650 C   0  0  0  0  0  0  0  0  0  0  0  0
   -1.3203    2.1632    0.4696 C   0  0  0  0  0  0  0  0  0  0  0  0
    0.2797    2.8441   -1.2077 C   0  0  0  0  0  0  0  0  0  0  0  0
    1.0320    1.7167    0.7924 C   0  0  0  0  0  0  0  0  0  0  0  0
   -1.0377    2.7659   -0.7562 C   0  0  0  0  0  0  0  0  0  0  0  0
   -0.2854    1.6386    1.2439 C   0  0  0  0  0  0  0  0  0  0  0  0
   -3.3426    0.9694    0.5568 C   0  0  0  0  0  0  0  0  0  0  0  0
    6.3751   -3.9107    0.4669 C   0  0  0  0  0  0  0  0  0  0  0  0
   -4.7236   -1.2652   -0.1817 C   0  0  0  0  0  0  0  0  0  0  0  0
   -4.6560    0.8403    0.9790 C   0  0  0  0  0  0  0  0  0  0  0  0
   -5.3527   -0.3013    0.5985 C   0  0  0  0  0  0  0  0  0  0  0  0
   -3.4072   -1.0418   -0.5522 C   0  0  0  0  0  0  0  0  0  0  0  0
    5.2955   -4.9077    0.8304 C   0  0  0  0  0  0  0  0  0  0  0  0
   -5.4409   -2.4974   -0.6053 C   0  0  0  0  0  0  0  0  0  0  0  0
    2.6637    0.3076   -0.8185 H   0  0  0  0  0  0  0  0  0  0  0  0
    4.3907    1.9066   -2.7832 H   0  0  0  0  0  0  0  0  0  0  0  0
    4.2388    0.1417   -2.7354 H   0  0  0  0  0  0  0  0  0  0  0  0
    2.8482    1.1560   -3.1786 H   0  0  0  0  0  0  0  0  0  0  0  0
    5.9527   -0.1429    1.6453 H   0  0  0  0  0  0  0  0  0  0  0  0
    7.0208    0.5332    0.3733 H   0  0  0  0  0  0  0  0  0  0  0  0
    7.1354   -1.7218   -0.6909 H   0  0  0  0  0  0  0  0  0  0  0  0
    7.7516   -1.7526    0.9880 H   0  0  0  0  0  0  0  0  0  0  0  0
    0.4942    3.3143   -2.1634 H   0  0  0  0  0  0  0  0  0  0  0  0
    1.8283    1.3121    1.4111 H   0  0  0  0  0  0  0  0  0  0  0  0
   -1.8386    3.1778   -1.3643 H   0  0  0  0  0  0  0  0  0  0  0  0
   -0.4978    1.1705    2.2013 H   0  0  0  0  0  0  0  0  0  0  0  0
    6.6470   -4.0307   -0.5879 H   0  0  0  0  0  0  0  0  0  0  0  0
    7.2626   -4.0862    1.0851 H   0  0  0  0  0  0  0  0  0  0  0  0
   -6.3850   -0.4376    0.9113 H   0  0  0  0  0  0  0  0  0  0  0  0
   -2.8642   -1.7584   -1.1606 H   0  0  0  0  0  0  0  0  0  0  0  0
    5.0029   -4.7939    1.8795 H   0  0  0  0  0  0  0  0  0  0  0  0
    4.3960   -4.7383    0.2292 H   0  0  0  0  0  0  0  0  0  0  0  0
    5.6397   -5.9331    0.6693 H   0  0  0  0  0  0  0  0  0  0  0  0
  1 25  1  0  0  0  0
  2 29  1  0  0  0  0
  3 29  1  0  0  0  0
  4 29  1  0  0  0  0
  5 11  1  0  0  0  0
  5 12  1  0  0  0  0
  6 14  1  0  0  0  0
  6 15  1  0  0  0  0
  7 16  1  0  0  0  0
  7 23  1  0  0  0  0
  8 17  1  0  0  0  0
  8 22  1  0  0  0  0
  9 14  2  0  0  0  0
 10 22  1  0  0  0  0
 10 27  2  0  0  0  0
 11 13  1  0  0  0  0
 11 14  1  0  0  0  0
 11 30  1  0  0  0  0
 12 18  2  0  0  0  0
 12 19  1  0  0  0  0
 13 31  1  0  0  0  0
 13 32  1  0  0  0  0
 13 33  1  0  0  0  0
 15 16  1  0  0  0  0
 15 34  1  0  0  0  0
 15 35  1  0  0  0  0
 16 36  1  0  0  0  0
 16 37  1  0  0  0  0
 17 20  2  0  0  0  0
 17 21  1  0  0  0  0
 18 20  1  0  0  0  0
 18 38  1  0  0  0  0
 19 21  2  0  0  0  0
 19 39  1  0  0  0  0
 20 40  1  0  0  0  0
 21 41  1  0  0  0  0
 22 25  2  0  0  0  0
 23 28  1  0  0  0  0
 23 42  1  0  0  0  0
 23 43  1  0  0  0  0
 24 26  2  0  0  0  0
 24 27  1  0  0  0  0
 24 29  1  0  0  0  0
 25 26  1  0  0  0  0
 26 44  1  0  0  0  0
 27 45  1  0  0  0  0
 28 46  1  0  0  0  0
 28 47  1  0  0  0  0
 28 48  1  0  0  0  0
M  END
> <PUBCHEM_COMPOUND_CID>
91743

> <PUBCHEM_CONFORMER_RMSD>
1

> <PUBCHEM_CONFORMER_DIVERSEORDER>
1
130
67
38
163
109
191
182
156
153
111
116
190
253
146
282
260
76
43
242
40
171
96
224
29
21
106
33
209
157
37
70
136
82
181
283
248
145
60
93
140
226
24
275
232
86
197
183
18
62
84
170
92
274
110
273
122
231
42
119
154
205
262
219
26
120
59
212
100
172
90
79
195
128
151
256
277
258
104
208
203
61
142
56
175
52
41
206
187
20
51
121
236
223
148
250
194
249
127
131
263
126
113
94
264
13
53
115
10
200
143
72
184
35
103
235
245
265
281
229
162
112
178
261
241
141
91
269
268
85
47
139
251
246
137
124
54
64
213
243
207
271
276
155
118
129
15
138
123
8
107
152
147
57
247
222
165
244
87
55
36
188
166
202
25
58
150
11
239
164
160
201
177
257
114
102
77
98
238
69
255
252
214
161
68
159
50
225
266
88
12
279
65
267
23
272
173
31
132
169
101
185
97
174
144
66
7
179
34
215
28
105
22
16
192
45
14
4
198
5
17
44
75
32
80
133
30
6
211
3
99
89
217
81
63
158
78
220
49
108
234
167
9
2
210
218
240
149
74
230
73
254
125
39
95
284
19
237
46
278
280
71
186
233
135
189
227
134
221
83
199
48
117
176
180
228
196
27
168
216
270
204
193
259

> <PUBCHEM_MMFF94_PARTIAL_CHARGES>
33
1 -0.18
10 -0.62
11 0.34
12 0.08
14 0.66
15 0.28
16 0.28
17 0.08
18 -0.15
19 -0.15
2 -0.34
20 -0.15
21 -0.15
22 0.39
23 0.28
24 -0.14
25 0.18
26 -0.15
27 0.16
29 1.16
3 -0.34
38 0.15
39 0.15
4 -0.34
40 0.15
41 0.15
44 0.15
45 0.15
5 -0.36
6 -0.43
7 -0.56
8 -0.17
9 -0.57

> <PUBCHEM_EFFECTIVE_ROTOR_COUNT>
11

> <PUBCHEM_PHARMACOPHORE_FEATURES>
7
1 10 acceptor
1 5 acceptor
1 7 acceptor
1 8 acceptor
1 9 acceptor
6 10 22 24 25 26 27 rings
6 12 17 18 19 20 21 rings

> <PUBCHEM_HEAVY_ATOM_COUNT>
29

> <PUBCHEM_ATOM_DEF_STEREO_COUNT>
0

> <PUBCHEM_ATOM_UDEF_STEREO_COUNT>
1

> <PUBCHEM_BOND_DEF_STEREO_COUNT>
0

> <PUBCHEM_BOND_UDEF_STEREO_COUNT>
0

> <PUBCHEM_ISOTOPIC_ATOM_COUNT>
0

> <PUBCHEM_COMPONENT_COUNT>
1

> <PUBCHEM_CACTVS_TAUTO_COUNT>
1

> <PUBCHEM_CONFORMER_ID>
0001665F00000001

> <PUBCHEM_MMFF94_ENERGY>
72.1848

> <PUBCHEM_FEATURE_SELFOVERLAP>
35.578

> <PUBCHEM_SHAPE_FINGERPRINT>
10571361 74 18411979178519575238
10622 236 18340200894852129231
10939801 23 17986671687427175196
11331351 85 18188496774232243276
11796584 16 18131363998511224125
11809386 21 18342181111473540025
13008946 267 16176784919824728792
13533116 47 18334581231347139120
1361 4 18412262810133935778
13627167 48 12685100262930594046
13885169 86 9439407955551716351
15475509 35 18201150040518022072
15728490 83 18263092153181935779
16728300 4 18342736343212839223
16993089 31 17168442531795993531
19303781 99 17822296717698886034
20028762 73 18411982451780156646
21585483 132 18336814372963729666
21792938 131 18269548503072920891
23522609 53 18121254006221595236
260245 28 18339635745818586318
2748736 6 10015570685049769990
2838139 119 11169912835619986356
3472631 163 8502383234233738816
3504750 166 18341051792119251697
373842 8 18410013273235726546
397830 11 17560797779605053952
474113 269 18201427113274645367
5104073 3 17631742680802733737
531348 171 18334295354034452101
559249 180 18413110585254401577
5718773 13 18408880729356303114
6712543 237 18130220442019779434
7808743 9 10953997326874963157
7970288 3 18337388339528610422
96874 4 18410569591738056674

> <PUBCHEM_SHAPE_MULTIPOLES>
542.53
19.68
5.29
1.5
11.06
6.4
0.47
21.75
-3.02
3.23
0.17
-0.46
-0.49
-4.8

> <PUBCHEM_SHAPE_SELFOVERLAP>
1127.151

> <PUBCHEM_SHAPE_VOLUME>
311.6

> <PUBCHEM_COORDINATE_TYPE>
2
5
10

$$$$
