91760
  -OEChem-07202400443D

 34 35  0     0  0  0  0  0  0999 V2000
   -0.5109   -2.9061    0.6098 Cl  0  0  0  0  0  0  0  0  0  0  0  0
   -4.6463    0.4363   -0.3449 S   0  0  0  0  0  0  0  0  0  0  0  0
    2.7421   -2.1068   -0.7032 O   0  0  0  0  0  0  0  0  0  0  0  0
    2.7534    1.9110    1.4446 O   0  0  0  0  0  0  0  0  0  0  0  0
    1.5419   -0.9001    1.8650 O   0  0  0  0  0  0  0  0  0  0  0  0
   -5.3742   -0.7237    0.1497 O   0  0  0  0  0  0  0  0  0  0  0  0
   -5.0300    1.7712    0.0935 O   0  0  0  0  0  0  0  0  0  0  0  0
    2.1807    0.1838   -0.1536 C   0  0  0  0  0  0  0  0  0  0  0  0
    5.0411    0.5492   -0.8529 C   0  0  0  0  0  0  0  0  0  0  0  0
    4.2043   -0.4592   -1.6254 C   0  0  0  0  0  0  0  0  0  0  0  0
    4.2107    1.7551   -0.4405 C   0  0  0  0  0  0  0  0  0  0  0  0
    3.0315   -0.9131   -0.7839 C   0  0  0  0  0  0  0  0  0  0  0  0
    3.0379    1.3128    0.4072 C   0  0  0  0  0  0  0  0  0  0  0  0
    1.1781   -0.3450    0.8307 C   0  0  0  0  0  0  0  0  0  0  0  0
   -0.2751   -0.1887    0.5397 C   0  0  0  0  0  0  0  0  0  0  0  0
   -2.9515    0.1938   -0.0025 C   0  0  0  0  0  0  0  0  0  0  0  0
   -1.0943   -1.2911    0.4258 C   0  0  0  0  0  0  0  0  0  0  0  0
   -0.7468    1.0997    0.3922 C   0  0  0  0  0  0  0  0  0  0  0  0
   -2.4483   -1.0981    0.1514 C   0  0  0  0  0  0  0  0  0  0  0  0
   -2.1006    1.2926    0.1179 C   0  0  0  0  0  0  0  0  0  0  0  0
   -4.7438    0.4263   -2.1208 C   0  0  0  0  0  0  0  0  0  0  0  0
    1.6314    0.6275   -0.9957 H   0  0  0  0  0  0  0  0  0  0  0  0
    5.4566    0.0691    0.0422 H   0  0  0  0  0  0  0  0  0  0  0  0
    5.8852    0.8769   -1.4697 H   0  0  0  0  0  0  0  0  0  0  0  0
    4.8168   -1.3304   -1.8804 H   0  0  0  0  0  0  0  0  0  0  0  0
    3.8178   -0.0285   -2.5551 H   0  0  0  0  0  0  0  0  0  0  0  0
    3.8244    2.2913   -1.3138 H   0  0  0  0  0  0  0  0  0  0  0  0
    4.8280    2.4480    0.1411 H   0  0  0  0  0  0  0  0  0  0  0  0
   -0.0962    1.9637    0.4881 H   0  0  0  0  0  0  0  0  0  0  0  0
   -3.1049   -1.9590    0.0516 H   0  0  0  0  0  0  0  0  0  0  0  0
   -2.4704    2.3069   -0.0031 H   0  0  0  0  0  0  0  0  0  0  0  0
   -4.3876   -0.5371   -2.4904 H   0  0  0  0  0  0  0  0  0  0  0  0
   -5.7888    0.5701   -2.4036 H   0  0  0  0  0  0  0  0  0  0  0  0
   -4.1356    1.2426   -2.5148 H   0  0  0  0  0  0  0  0  0  0  0  0
  1 17  1  0  0  0  0
  2  6  2  0  0  0  0
  2  7  2  0  0  0  0
  2 16  1  0  0  0  0
  2 21  1  0  0  0  0
  3 12  2  0  0  0  0
  4 13  2  0  0  0  0
  5 14  2  0  0  0  0
  8 12  1  0  0  0  0
  8 13  1  0  0  0  0
  8 14  1  0  0  0  0
  8 22  1  0  0  0  0
  9 10  1  0  0  0  0
  9 11  1  0  0  0  0
  9 23  1  0  0  0  0
  9 24  1  0  0  0  0
 10 12  1  0  0  0  0
 10 25  1  0  0  0  0
 10 26  1  0  0  0  0
 11 13  1  0  0  0  0
 11 27  1  0  0  0  0
 11 28  1  0  0  0  0
 14 15  1  0  0  0  0
 15 17  2  0  0  0  0
 15 18  1  0  0  0  0
 16 19  2  0  0  0  0
 16 20  1  0  0  0  0
 17 19  1  0  0  0  0
 18 20  2  0  0  0  0
 18 29  1  0  0  0  0
 19 30  1  0  0  0  0
 20 31  1  0  0  0  0
 21 32  1  0  0  0  0
 21 33  1  0  0  0  0
 21 34  1  0  0  0  0
M  END
> <PUBCHEM_COMPOUND_CID>
91760

> <PUBCHEM_CONFORMER_RMSD>
0.6

> <PUBCHEM_CONFORMER_DIVERSEORDER>
2
52
55
54
9
50
16
31
28
11
46
23
42
4
51
13
49
56
26
3
36
29
10
53
40
14
27
12
34
35
25
38
1
44
15
39
37
33
30
17
32
6
48
19
5
43
20
41
18
21
8
7
45
47
22
24

> <PUBCHEM_MMFF94_PARTIAL_CHARGES>
23
1 -0.18
10 0.06
11 0.06
12 0.45
13 0.45
14 0.42
15 0.09
16 -0.01
17 0.18
18 -0.15
19 -0.15
2 1.2
20 -0.15
21 0.11
29 0.15
3 -0.57
30 0.15
31 0.15
4 -0.57
5 -0.57
6 -0.65
7 -0.65
8 0.18

> <PUBCHEM_EFFECTIVE_ROTOR_COUNT>
3.8

> <PUBCHEM_PHARMACOPHORE_FEATURES>
8
1 3 acceptor
1 4 acceptor
1 5 acceptor
1 6 acceptor
1 7 acceptor
1 8 anion
6 15 16 17 18 19 20 rings
6 8 9 10 11 12 13 rings

> <PUBCHEM_HEAVY_ATOM_COUNT>
21

> <PUBCHEM_ATOM_DEF_STEREO_COUNT>
0

> <PUBCHEM_ATOM_UDEF_STEREO_COUNT>
0

> <PUBCHEM_BOND_DEF_STEREO_COUNT>
0

> <PUBCHEM_BOND_UDEF_STEREO_COUNT>
0

> <PUBCHEM_ISOTOPIC_ATOM_COUNT>
0

> <PUBCHEM_COMPONENT_COUNT>
1

> <PUBCHEM_CACTVS_TAUTO_COUNT>
8

> <PUBCHEM_CONFORMER_ID>
0001667000000002

> <PUBCHEM_MMFF94_ENERGY>
39.6234

> <PUBCHEM_FEATURE_SELFOVERLAP>
40.617

> <PUBCHEM_SHAPE_FINGERPRINT>
10498660 4 18114178635857895709
11543360 7 17274530031819119917
11796584 16 14764346037799705445
12236239 1 16805320020123420600
12251169 10 10953742226790886938
12670546 177 18131348613758340247
12730499 353 18340215162454112954
12892183 10 12685092562344173845
12969540 114 18261382365265750719
14341114 328 13984665857994992357
14528608 73 18408598154857577733
14790565 3 18338525132032120257
15238133 3 14634869717365604950
15885798 251 10807935963903692627
1601671 61 17530682095679087981
1813 80 13183024003758566650
18186145 218 18335414652096058037
193927 3 12895074054405803853
19784866 240 15410905028529080860
19862831 5 18410294709208669017
200 152 17203615882223133440
20645477 56 18261117421222445035
20645477 70 17846508032102891302
20871999 31 18339642364367645655
221357 26 18202568353966145169
22289505 5 18342175540400251884
23227448 37 18043253650281006797
23402539 116 18343584023142417165
23402655 69 18343022185569545356
23557571 272 18193283111487221362
23559900 14 18412267259524310388
314173 85 9871474244163035899
3472631 163 17677054667331971660
3545911 37 18336270118928042245
3759504 43 17822295720886606619
4028521 119 18333733532733750429
42 15 9583520910318132181
465052 167 14333126420644616237
474 4 17386013909336851196
495365 180 17703219719894680864
4990 188 18272934912094613117
542803 24 15936128573026806884
59755656 520 16588024645117128818
633830 44 18342451509539599277
960060 61 17561361781424035677
9709674 26 18198625621296094638
9841814 1 13830121785324592154

> <PUBCHEM_SHAPE_MULTIPOLES>
408.54
10.98
2.15
1.36
5.05
0.97
-0.31
-4.22
-4.56
-0.36
0.37
-0.29
-0.04
0.77

> <PUBCHEM_SHAPE_SELFOVERLAP>
847.288

> <PUBCHEM_SHAPE_VOLUME>
233.9

> <PUBCHEM_COORDINATE_TYPE>
2
5
10

$$$$
