91766
  -OEChem-07202400553D

 44 46  0     0  0  0  0  0  0999 V2000
    5.5731    1.8096    2.4332 Cl  0  0  0  0  0  0  0  0  0  0  0  0
    0.2395   -0.9853    1.6934 F   0  0  0  0  0  0  0  0  0  0  0  0
    7.3527   -2.5370   -1.8532 F   0  0  0  0  0  0  0  0  0  0  0  0
    8.7754   -1.3912   -0.6839 F   0  0  0  0  0  0  0  0  0  0  0  0
    7.4966   -2.8534    0.2934 F   0  0  0  0  0  0  0  0  0  0  0  0
   -7.5307    0.0942   -2.1477 F   0  0  0  0  0  0  0  0  0  0  0  0
   -5.2205   -0.8678    1.8892 F   0  0  0  0  0  0  0  0  0  0  0  0
    3.5634    2.0672    0.2119 O   0  0  0  0  0  0  0  0  0  0  0  0
   -2.8017    1.9958   -1.0416 O   0  0  0  0  0  0  0  0  0  0  0  0
   -5.5332    1.5234   -1.2644 O   0  0  0  0  0  0  0  0  0  0  0  0
   -1.7257    0.4016    0.3069 N   0  0  0  0  0  0  0  0  0  0  0  0
   -3.9930    0.2594   -0.0584 N   0  0  0  0  0  0  0  0  0  0  0  0
    2.2656    1.6579    0.2360 C   0  0  0  0  0  0  0  0  0  0  0  0
    4.5388    1.1035    0.0179 C   0  0  0  0  0  0  0  0  0  0  0  0
   -0.3762    0.8247    0.2842 C   0  0  0  0  0  0  0  0  0  0  0  0
    6.4633   -0.8360   -0.4251 C   0  0  0  0  0  0  0  0  0  0  0  0
    1.9049    0.5249    0.9652 C   0  0  0  0  0  0  0  0  0  0  0  0
    1.2964    2.3715   -0.4690 C   0  0  0  0  0  0  0  0  0  0  0  0
    0.5748    0.1055    0.9896 C   0  0  0  0  0  0  0  0  0  0  0  0
   -0.0337    1.9520   -0.4446 C   0  0  0  0  0  0  0  0  0  0  0  0
    5.5185    0.8937    0.9722 C   0  0  0  0  0  0  0  0  0  0  0  0
    4.4987    0.3663   -1.1535 C   0  0  0  0  0  0  0  0  0  0  0  0
    6.4883   -0.0837    0.7494 C   0  0  0  0  0  0  0  0  0  0  0  0
    5.4685   -0.6110   -1.3765 C   0  0  0  0  0  0  0  0  0  0  0  0
    7.5004   -1.8807   -0.6642 C   0  0  0  0  0  0  0  0  0  0  0  0
   -6.3486   -0.3634   -0.1392 C   0  0  0  0  0  0  0  0  0  0  0  0
   -2.8197    0.9906   -0.3357 C   0  0  0  0  0  0  0  0  0  0  0  0
   -5.2872    0.5521   -0.5285 C   0  0  0  0  0  0  0  0  0  0  0  0
   -7.4449   -0.5578   -0.9794 C   0  0  0  0  0  0  0  0  0  0  0  0
   -6.2699   -1.0470    1.0742 C   0  0  0  0  0  0  0  0  0  0  0  0
   -8.4625   -1.4357   -0.6062 C   0  0  0  0  0  0  0  0  0  0  0  0
   -7.2876   -1.9249    1.4474 C   0  0  0  0  0  0  0  0  0  0  0  0
   -8.3839   -2.1191    0.6072 C   0  0  0  0  0  0  0  0  0  0  0  0
    2.6342   -0.0410    1.5379 H   0  0  0  0  0  0  0  0  0  0  0  0
    1.5730    3.2545   -1.0388 H   0  0  0  0  0  0  0  0  0  0  0  0
   -0.7224    2.5567   -1.0153 H   0  0  0  0  0  0  0  0  0  0  0  0
    3.7372    0.5384   -1.9086 H   0  0  0  0  0  0  0  0  0  0  0  0
    7.2668   -0.2639    1.4875 H   0  0  0  0  0  0  0  0  0  0  0  0
    5.4339   -1.1848   -2.2984 H   0  0  0  0  0  0  0  0  0  0  0  0
   -1.9105   -0.4317    0.8598 H   0  0  0  0  0  0  0  0  0  0  0  0
   -3.8712   -0.5682    0.5181 H   0  0  0  0  0  0  0  0  0  0  0  0
   -9.3160   -1.5868   -1.2604 H   0  0  0  0  0  0  0  0  0  0  0  0
   -7.2261   -2.4570    2.3920 H   0  0  0  0  0  0  0  0  0  0  0  0
   -9.1762   -2.8026    0.8978 H   0  0  0  0  0  0  0  0  0  0  0  0
  1 21  1  0  0  0  0
  2 19  1  0  0  0  0
  3 25  1  0  0  0  0
  4 25  1  0  0  0  0
  5 25  1  0  0  0  0
  6 29  1  0  0  0  0
  7 30  1  0  0  0  0
  8 13  1  0  0  0  0
  8 14  1  0  0  0  0
  9 27  2  0  0  0  0
 10 28  2  0  0  0  0
 11 15  1  0  0  0  0
 11 27  1  0  0  0  0
 11 40  1  0  0  0  0
 12 27  1  0  0  0  0
 12 28  1  0  0  0  0
 12 41  1  0  0  0  0
 13 17  2  0  0  0  0
 13 18  1  0  0  0  0
 14 21  2  0  0  0  0
 14 22  1  0  0  0  0
 15 19  2  0  0  0  0
 15 20  1  0  0  0  0
 16 23  2  0  0  0  0
 16 24  1  0  0  0  0
 16 25  1  0  0  0  0
 17 19  1  0  0  0  0
 17 34  1  0  0  0  0
 18 20  2  0  0  0  0
 18 35  1  0  0  0  0
 20 36  1  0  0  0  0
 21 23  1  0  0  0  0
 22 24  2  0  0  0  0
 22 37  1  0  0  0  0
 23 38  1  0  0  0  0
 24 39  1  0  0  0  0
 26 28  1  0  0  0  0
 26 29  2  0  0  0  0
 26 30  1  0  0  0  0
 29 31  1  0  0  0  0
 30 32  2  0  0  0  0
 31 33  2  0  0  0  0
 31 42  1  0  0  0  0
 32 33  1  0  0  0  0
 32 43  1  0  0  0  0
 33 44  1  0  0  0  0
M  END
> <PUBCHEM_COMPOUND_CID>
91766

> <PUBCHEM_CONFORMER_RMSD>
1

> <PUBCHEM_CONFORMER_DIVERSEORDER>
1
105
79
54
81
64
112
98
104
51
90
37
108
10
80
86
63
99
49
47
94
43
97
107
33
48
106
38
75
26
73
113
24
36
95
7
88
23
100
87
25
111
102
52
110
85
46
57
60
17
27
68
78
41
62
69
50
12
84
91
34
30
77
6
93
2
92
96
89
42
44
35
55
109
103
58
70
59
101
39
13
67
40
16
32
76
18
71
74
8
66
15
19
31
83
22
20
53
14
11
28
3
65
72
82
61
45
9
4
56
5
21
29

> <PUBCHEM_MMFF94_PARTIAL_CHARGES>
44
1 -0.18
10 -0.57
11 -0.55
12 -0.49
13 0.08
14 0.08
15 0.12
16 -0.14
17 -0.15
18 -0.15
19 0.19
2 -0.19
20 -0.15
21 0.18
22 -0.15
23 -0.15
24 -0.15
25 1.16
26 0.09
27 0.69
28 0.54
29 0.19
3 -0.34
30 0.19
31 -0.15
32 -0.15
33 -0.15
34 0.15
35 0.15
36 0.15
37 0.15
38 0.15
39 0.15
4 -0.34
40 0.37
41 0.37
42 0.15
43 0.15
44 0.15
5 -0.34
6 -0.19
7 -0.19
8 -0.17
9 -0.57

> <PUBCHEM_EFFECTIVE_ROTOR_COUNT>
8

> <PUBCHEM_PHARMACOPHORE_FEATURES>
8
1 10 acceptor
1 11 donor
1 12 donor
1 8 acceptor
1 9 acceptor
6 13 15 17 18 19 20 rings
6 14 16 21 22 23 24 rings
6 26 29 30 31 32 33 rings

> <PUBCHEM_HEAVY_ATOM_COUNT>
33

> <PUBCHEM_ATOM_DEF_STEREO_COUNT>
0

> <PUBCHEM_ATOM_UDEF_STEREO_COUNT>
0

> <PUBCHEM_BOND_DEF_STEREO_COUNT>
0

> <PUBCHEM_BOND_UDEF_STEREO_COUNT>
0

> <PUBCHEM_ISOTOPIC_ATOM_COUNT>
0

> <PUBCHEM_COMPONENT_COUNT>
1

> <PUBCHEM_CACTVS_TAUTO_COUNT>
5

> <PUBCHEM_CONFORMER_ID>
0001667600000001

> <PUBCHEM_MMFF94_ENERGY>
91.7952

> <PUBCHEM_FEATURE_SELFOVERLAP>
40.652

> <PUBCHEM_SHAPE_FINGERPRINT>
11297750 10 11309850910561557208
11386260 185 16878233047330311132
11578821 258 8286196163112726439
11607047 74 18117566343565192540
11719270 70 17821997731670660795
11828532 37 18334299790598148818
11991303 11 16153710972292842883
12539765 74 12901536915092787569
13533116 47 17847058888024707408
13668630 136 18408039610881335845
13782708 43 18410292531818778457
14028597 1 15841563946225702175
14117953 113 17458336477741201575
14251764 18 14548740642657128873
14294032 229 17096640998933965533
14849402 71 15266772355794396521
150020 25 18113051645345643679
15183329 4 16443064989003017052
15352257 5 18343585161498882119
15419008 91 18190156019104423373
15510794 2 18410852165899087648
15510800 12 18201733812404595558
1577012 14 15936685978156649132
16991971 28 18260830405822539501
1754911 235 14057003819335648030
1818759 1 17846787291166614750
18335252 114 13840266992410167166
19315958 150 18130500946861395608
20105231 36 18187089481822857019
2026 5 18341333292734059974
21267235 1 18114463448725834649
21315759 40 17417811794671559621
21344244 181 18412265038916228258
21781051 124 17967258619531961754
21792934 111 11959743642099631520
23569943 247 18049162168709421818
23576562 1 15937271034506956359
24771293 8 10663806473908254648
3383291 50 18410574011190975851
4073 2 14476685282007814541
4169191 19 8214142958636135919
4516262 110 13334746739342869710
49967989 163 15719969050215480419
504579 68 15936412247158434090
58083652 198 16630513034321308769
59755656 215 18040432196249240683
636775 72 10159714478136059179
9831232 110 18334574608259415158
9962374 69 18131342042991270004

> <PUBCHEM_SHAPE_MULTIPOLES>
609.78
30.25
2.46
1.64
17.79
0.65
0.34
22.99
-3.22
-3.17
-0.22
-0.01
0.06
4

> <PUBCHEM_SHAPE_SELFOVERLAP>
1330.902

> <PUBCHEM_SHAPE_VOLUME>
330.3

> <PUBCHEM_COORDINATE_TYPE>
2
5
10

$$$$
