91772
  -OEChem-07202400443D

 41 42  0     0  0  0  0  0  0999 V2000
    2.4546    0.8031   -1.4763 S   0  0  0  0  0  0  0  0  0  0  0  0
    2.2222    0.1861   -2.7681 O   0  0  0  0  0  0  0  0  0  0  0  0
    3.4826    1.8138   -1.3208 O   0  0  0  0  0  0  0  0  0  0  0  0
   -0.4292   -0.1925   -1.8128 O   0  0  0  0  0  0  0  0  0  0  0  0
    2.0633    1.5937    1.9870 O   0  0  0  0  0  0  0  0  0  0  0  0
    4.2642    1.8249    1.4681 O   0  0  0  0  0  0  0  0  0  0  0  0
   -3.6158   -2.6315   -0.1044 O   0  0  0  0  0  0  0  0  0  0  0  0
    0.9696    1.3905   -0.8600 N   0  0  0  0  0  0  0  0  0  0  0  0
   -1.4423    1.4571   -0.5370 N   0  0  0  0  0  0  0  0  0  0  0  0
   -3.5669    1.3886    0.4357 N   0  0  0  0  0  0  0  0  0  0  0  0
   -2.5012   -0.6173   -0.3377 N   0  0  0  0  0  0  0  0  0  0  0  0
   -4.6832   -0.7242    0.6550 N   0  0  0  0  0  0  0  0  0  0  0  0
    2.7903   -0.5041   -0.3350 C   0  0  0  0  0  0  0  0  0  0  0  0
    3.1357   -0.2271    0.9786 C   0  0  0  0  0  0  0  0  0  0  0  0
    2.6976   -1.8098   -0.7934 C   0  0  0  0  0  0  0  0  0  0  0  0
   -0.3281    0.8332   -1.1393 C   0  0  0  0  0  0  0  0  0  0  0  0
    3.3948   -1.2806    1.8554 C   0  0  0  0  0  0  0  0  0  0  0  0
    2.9568   -2.8632    0.0834 C   0  0  0  0  0  0  0  0  0  0  0  0
    3.3055   -2.5987    1.4078 C   0  0  0  0  0  0  0  0  0  0  0  0
   -2.5842    0.6884   -0.1165 C   0  0  0  0  0  0  0  0  0  0  0  0
   -1.4019    2.9091   -0.3529 C   0  0  0  0  0  0  0  0  0  0  0  0
    3.2408    1.1360    1.4826 C   0  0  0  0  0  0  0  0  0  0  0  0
   -4.5963    0.6077    0.8015 C   0  0  0  0  0  0  0  0  0  0  0  0
   -3.5995   -1.2683    0.0782 C   0  0  0  0  0  0  0  0  0  0  0  0
   -5.7610    1.2890    1.4355 C   0  0  0  0  0  0  0  0  0  0  0  0
   -2.4683   -3.2041   -0.7147 C   0  0  0  0  0  0  0  0  0  0  0  0
    1.0244    2.2185   -0.2547 H   0  0  0  0  0  0  0  0  0  0  0  0
    2.4255   -2.0505   -1.8159 H   0  0  0  0  0  0  0  0  0  0  0  0
    3.6677   -1.0878    2.8899 H   0  0  0  0  0  0  0  0  0  0  0  0
    2.8860   -3.8896   -0.2644 H   0  0  0  0  0  0  0  0  0  0  0  0
    3.5070   -3.4190    2.0904 H   0  0  0  0  0  0  0  0  0  0  0  0
   -0.6411    3.3699   -0.9896 H   0  0  0  0  0  0  0  0  0  0  0  0
   -1.1776    3.1223    0.6964 H   0  0  0  0  0  0  0  0  0  0  0  0
   -2.3671    3.3472   -0.6251 H   0  0  0  0  0  0  0  0  0  0  0  0
   -6.7000    0.8454    1.0900 H   0  0  0  0  0  0  0  0  0  0  0  0
   -5.7024    1.1862    2.5230 H   0  0  0  0  0  0  0  0  0  0  0  0
   -5.7770    2.3545    1.1859 H   0  0  0  0  0  0  0  0  0  0  0  0
    2.1416    2.5128    2.3207 H   0  0  0  0  0  0  0  0  0  0  0  0
   -1.5729   -3.0375   -0.1062 H   0  0  0  0  0  0  0  0  0  0  0  0
   -2.3270   -2.8164   -1.7292 H   0  0  0  0  0  0  0  0  0  0  0  0
   -2.6285   -4.2840   -0.7875 H   0  0  0  0  0  0  0  0  0  0  0  0
  1  2  2  0  0  0  0
  1  3  2  0  0  0  0
  1  8  1  0  0  0  0
  1 13  1  0  0  0  0
  4 16  2  0  0  0  0
  5 22  1  0  0  0  0
  5 38  1  0  0  0  0
  6 22  2  0  0  0  0
  7 24  1  0  0  0  0
  7 26  1  0  0  0  0
  8 16  1  0  0  0  0
  8 27  1  0  0  0  0
  9 16  1  0  0  0  0
  9 20  1  0  0  0  0
  9 21  1  0  0  0  0
 10 20  1  0  0  0  0
 10 23  2  0  0  0  0
 11 20  2  0  0  0  0
 11 24  1  0  0  0  0
 12 23  1  0  0  0  0
 12 24  2  0  0  0  0
 13 14  1  0  0  0  0
 13 15  2  0  0  0  0
 14 17  2  0  0  0  0
 14 22  1  0  0  0  0
 15 18  1  0  0  0  0
 15 28  1  0  0  0  0
 17 19  1  0  0  0  0
 17 29  1  0  0  0  0
 18 19  2  0  0  0  0
 18 30  1  0  0  0  0
 19 31  1  0  0  0  0
 21 32  1  0  0  0  0
 21 33  1  0  0  0  0
 21 34  1  0  0  0  0
 23 25  1  0  0  0  0
 25 35  1  0  0  0  0
 25 36  1  0  0  0  0
 25 37  1  0  0  0  0
 26 39  1  0  0  0  0
 26 40  1  0  0  0  0
 26 41  1  0  0  0  0
M  END
> <PUBCHEM_COMPOUND_CID>
91772

> <PUBCHEM_CONFORMER_RMSD>
0.8

> <PUBCHEM_CONFORMER_DIVERSEORDER>
1
258
359
292
333
402
295
397
423
127
56
182
59
384
409
320
412
189
257
154
100
373
321
385
248
431
302
228
400
288
326
438
393
406
280
234
131
362
330
111
425
388
283
390
107
141
279
242
229
276
293
370
298
153
348
223
426
314
407
123
360
164
101
219
184
221
376
261
335
343
291
328
40
296
375
39
210
319
168
389
255
49
139
435
197
381
345
73
386
380
350
251
122
357
92
220
340
135
289
421
190
382
374
304
216
303
332
109
62
263
169
188
97
179
417
159
394
180
30
299
408
105
337
290
252
313
149
155
351
162
148
419
200
236
237
84
160
158
309
243
392
103
282
405
336
437
334
53
43
269
128
422
274
108
90
428
344
225
434
68
174
353
324
86
12
60
415
310
165
414
83
233
183
144
166
238
178
11
130
323
110
19
177
42
364
87
271
371
205
89
201
34
399
429
26
28
430
124
411
185
129
194
273
349
15
99
253
275
142
367
106
260
163
212
41
327
134
176
137
239
396
354
217
196
436
285
71
52
230
48
195
284
278
227
297
329
231
267
226
365
136
187
264
25
214
398
404
82
395
222
352
78
300
88
8
81
439
341
133
272
358
117
17
121
265
31
305
170
311
125
427
13
218
44
152
355
51
410
143
20
120
286
77
75
112
203
57
420
363
38
147
317
256
433
315
338
72
146
342
35
161
268
191
424
150
27
54
277
18
346
215
240
10
250
249
325
3
232
114
241
156
339
331
318
308
24
235
167
199
306
281
95
416
224
171
266
4
246
61
7
138
369
391
118
115
79
47
262
66
33
301
322
208
70
74
207
145
211
213
21
403
16
85
93
104
254
202
294
181
368
401
98
198
418
192
172
259
5
432
6
383
37
366
193
157
244
173
361
69
67
64
245
247
387
372
36
76
50
312
287
96
206
204
307
356
32
413
80
378
151
94
132
209
22
126
175
9
65
316
29
55
186
140
377
379
63
23
46
14
2
116
119
91
270
113
58
102
45
347

> <PUBCHEM_MMFF94_PARTIAL_CHARGES>
32
1 1.45
10 -0.62
11 -0.62
12 -0.62
13 -0.01
14 0.09
15 -0.15
16 0.87
17 -0.15
18 -0.15
19 -0.15
2 -0.65
20 0.74
21 0.3
22 0.63
23 0.48
24 0.7
25 0.14
26 0.28
27 0.42
28 0.15
29 0.15
3 -0.65
30 0.15
31 0.15
38 0.5
4 -0.57
5 -0.65
6 -0.57
7 -0.36
8 -0.79
9 -0.48

> <PUBCHEM_EFFECTIVE_ROTOR_COUNT>
7

> <PUBCHEM_PHARMACOPHORE_FEATURES>
11
1 2 acceptor
1 3 acceptor
1 4 acceptor
1 5 acceptor
1 6 acceptor
1 8 donor
3 10 12 23 cation
3 11 12 24 cation
3 5 6 22 anion
6 10 11 12 20 23 24 rings
6 13 14 15 17 18 19 rings

> <PUBCHEM_HEAVY_ATOM_COUNT>
26

> <PUBCHEM_ATOM_DEF_STEREO_COUNT>
0

> <PUBCHEM_ATOM_UDEF_STEREO_COUNT>
0

> <PUBCHEM_BOND_DEF_STEREO_COUNT>
0

> <PUBCHEM_BOND_UDEF_STEREO_COUNT>
0

> <PUBCHEM_ISOTOPIC_ATOM_COUNT>
0

> <PUBCHEM_COMPONENT_COUNT>
1

> <PUBCHEM_CACTVS_TAUTO_COUNT>
2

> <PUBCHEM_CONFORMER_ID>
0001667C00000001

> <PUBCHEM_MMFF94_ENERGY>
71.0755

> <PUBCHEM_FEATURE_SELFOVERLAP>
56.826

> <PUBCHEM_SHAPE_FINGERPRINT>
11118852 30 18189893291738106310
11552529 35 17916291909193658515
11578080 2 17678434563120910277
12363563 72 15574984044983055212
12403259 327 18059851736190606057
12422481 6 17898304805707868321
12553582 1 18262241126664776445
12633257 1 18129936784925401963
12670546 177 11025808591215525369
13224815 77 18409164428540627695
13583140 156 18270661160703584933
14081887 123 18271803574938541403
14178342 30 18267862976662054375
14848160 33 16153420670920434764
14863182 85 18040720281787170502
15163728 17 12821858713811491594
15537594 2 18041291997104477527
17818456 19 18116721699216843725
1813 80 17312824862057317853
19026451 147 16761107811125517958
20645477 70 16081664325846645284
20775530 9 17606949595391960346
21315759 227 17460879742103931891
21421861 104 18114471105950916612
21756936 100 17557121107733005096
23559900 14 18129682827904280013
238 59 12540991642191918856
3797600 57 17559669736529953810
495365 180 16271651079225319669
5281201 14 11025795379595273577
6823239 73 17917164844042608350
7064713 232 18270965644315790483
7097593 13 18410008862192608517
8988823 20 18129928053610303805

> <PUBCHEM_SHAPE_MULTIPOLES>
478.8
10.34
3.25
1.93
9.82
1.72
-0.18
0.8
4.9
-0.3
-0.01
-1.87
-0.47
-0.97

> <PUBCHEM_SHAPE_SELFOVERLAP>
1002.992

> <PUBCHEM_SHAPE_VOLUME>
271.8

> <PUBCHEM_COORDINATE_TYPE>
2
5
10

$$$$
