91770
  -OEChem-07202400483D

 37 38  0     1  0  0  0  0  0999 V2000
   -3.1339    2.4839    0.2328 O   0  0  0  0  0  0  0  0  0  0  0  0
    0.7485   -2.5428   -0.8906 O   0  0  0  0  0  0  0  0  0  0  0  0
    0.8412   -2.5043    1.3802 O   0  0  0  0  0  0  0  0  0  0  0  0
   -1.1145   -0.4368    0.3332 N   0  0  0  0  0  0  0  0  0  0  0  0
   -0.9191    1.7904    0.1127 N   0  0  0  0  0  0  0  0  0  0  0  0
    1.7457    1.6965   -0.1000 N   0  0  0  0  0  0  0  0  0  0  0  0
   -2.4857    0.1331    0.3936 C   0  0  2  0  0  0  0  0  0  0  0  0
   -3.3089   -0.4203   -0.7621 C   0  0  0  0  0  0  0  0  0  0  0  0
   -2.2672    1.6247    0.2388 C   0  0  0  0  0  0  0  0  0  0  0  0
   -3.1030   -0.1903    1.7479 C   0  0  0  0  0  0  0  0  0  0  0  0
   -2.6162   -0.1499   -2.0975 C   0  0  0  0  0  0  0  0  0  0  0  0
   -3.5553   -1.9180   -0.5824 C   0  0  0  0  0  0  0  0  0  0  0  0
   -0.3173    0.5761    0.1739 C   0  0  0  0  0  0  0  0  0  0  0  0
    1.1219    0.5030    0.0627 C   0  0  0  0  0  0  0  0  0  0  0  0
    1.7993   -0.7105    0.1197 C   0  0  0  0  0  0  0  0  0  0  0  0
    3.1849   -0.6977    0.0042 C   0  0  0  0  0  0  0  0  0  0  0  0
    3.8518    0.5109   -0.1634 C   0  0  0  0  0  0  0  0  0  0  0  0
    3.0931    1.6693   -0.2086 C   0  0  0  0  0  0  0  0  0  0  0  0
    1.1017   -1.9755    0.2950 C   0  0  0  0  0  0  0  0  0  0  0  0
    5.3331    0.5584   -0.2899 C   0  0  0  0  0  0  0  0  0  0  0  0
   -4.2851    0.0820   -0.7895 H   0  0  0  0  0  0  0  0  0  0  0  0
   -4.1600    0.0958    1.7837 H   0  0  0  0  0  0  0  0  0  0  0  0
   -3.0157   -1.2516    2.0030 H   0  0  0  0  0  0  0  0  0  0  0  0
   -2.5953    0.3625    2.5479 H   0  0  0  0  0  0  0  0  0  0  0  0
   -1.6539   -0.6655   -2.1834 H   0  0  0  0  0  0  0  0  0  0  0  0
   -3.2427   -0.5126   -2.9210 H   0  0  0  0  0  0  0  0  0  0  0  0
   -2.4569    0.9178   -2.2755 H   0  0  0  0  0  0  0  0  0  0  0  0
   -2.6230   -2.4801   -0.4648 H   0  0  0  0  0  0  0  0  0  0  0  0
   -4.0722   -2.3248   -1.4592 H   0  0  0  0  0  0  0  0  0  0  0  0
   -4.1973   -2.1256    0.2791 H   0  0  0  0  0  0  0  0  0  0  0  0
   -0.4523    2.6821   -0.0075 H   0  0  0  0  0  0  0  0  0  0  0  0
    3.7450   -1.6289    0.0432 H   0  0  0  0  0  0  0  0  0  0  0  0
    3.5552    2.6430   -0.3391 H   0  0  0  0  0  0  0  0  0  0  0  0
    5.6267    0.4143   -1.3344 H   0  0  0  0  0  0  0  0  0  0  0  0
    5.7302    1.5192    0.0549 H   0  0  0  0  0  0  0  0  0  0  0  0
    5.8043   -0.2208    0.3188 H   0  0  0  0  0  0  0  0  0  0  0  0
    0.2749   -3.3922   -0.7619 H   0  0  0  0  0  0  0  0  0  0  0  0
  1  9  2  0  0  0  0
  2 19  1  0  0  0  0
  2 37  1  0  0  0  0
  3 19  2  0  0  0  0
  4  7  1  0  0  0  0
  4 13  2  0  0  0  0
  5  9  1  0  0  0  0
  5 13  1  0  0  0  0
  5 31  1  0  0  0  0
  6 14  1  0  0  0  0
  6 18  2  0  0  0  0
  7  8  1  0  0  0  0
  7  9  1  0  0  0  0
  7 10  1  0  0  0  0
  8 11  1  0  0  0  0
  8 12  1  0  0  0  0
  8 21  1  0  0  0  0
 10 22  1  0  0  0  0
 10 23  1  0  0  0  0
 10 24  1  0  0  0  0
 11 25  1  0  0  0  0
 11 26  1  0  0  0  0
 11 27  1  0  0  0  0
 12 28  1  0  0  0  0
 12 29  1  0  0  0  0
 12 30  1  0  0  0  0
 13 14  1  0  0  0  0
 14 15  2  0  0  0  0
 15 16  1  0  0  0  0
 15 19  1  0  0  0  0
 16 17  2  0  0  0  0
 16 32  1  0  0  0  0
 17 18  1  0  0  0  0
 17 20  1  0  0  0  0
 18 33  1  0  0  0  0
 20 34  1  0  0  0  0
 20 35  1  0  0  0  0
 20 36  1  0  0  0  0
M  END
> <PUBCHEM_COMPOUND_CID>
91770

> <PUBCHEM_CONFORMER_RMSD>
0.6

> <PUBCHEM_CONFORMER_DIVERSEORDER>
1
23
2
26
22
21
17
10
13
9
5
14
25
12
18
20
11
7
24
8
15
19
6
4
16
3

> <PUBCHEM_MMFF94_PARTIAL_CHARGES>
20
1 -0.57
13 0.42
14 0.4
15 0.09
16 -0.15
17 -0.14
18 0.16
19 0.63
2 -0.65
20 0.14
3 -0.57
31 0.37
32 0.15
33 0.15
37 0.5
4 -0.7
5 -0.49
6 -0.62
7 0.31
9 0.57

> <PUBCHEM_EFFECTIVE_ROTOR_COUNT>
3.4

> <PUBCHEM_PHARMACOPHORE_FEATURES>
9
1 1 acceptor
1 2 acceptor
1 3 acceptor
1 5 donor
1 6 acceptor
3 2 3 19 anion
3 8 11 12 hydrophobe
5 4 5 7 9 13 rings
6 6 14 15 16 17 18 rings

> <PUBCHEM_HEAVY_ATOM_COUNT>
20

> <PUBCHEM_ATOM_DEF_STEREO_COUNT>
0

> <PUBCHEM_ATOM_UDEF_STEREO_COUNT>
1

> <PUBCHEM_BOND_DEF_STEREO_COUNT>
0

> <PUBCHEM_BOND_UDEF_STEREO_COUNT>
0

> <PUBCHEM_ISOTOPIC_ATOM_COUNT>
0

> <PUBCHEM_COMPONENT_COUNT>
1

> <PUBCHEM_CACTVS_TAUTO_COUNT>
3

> <PUBCHEM_CONFORMER_ID>
0001667A00000001

> <PUBCHEM_MMFF94_ENERGY>
60.724

> <PUBCHEM_FEATURE_SELFOVERLAP>
45.729

> <PUBCHEM_SHAPE_FINGERPRINT>
10062212 137 18338509742720440098
10616163 171 18413952788990070503
11578080 2 17024867048535190118
121448 382 18339350993585714522
12236239 1 17917997204256494653
12403260 363 18337103566444258384
12553582 1 18128519630965843967
12788726 201 18059000697807520593
13032168 30 18271809085329101339
13140716 1 18120668086459944746
13224815 77 18412822499457657896
14178342 30 18267850705834826120
14251751 93 18202565072811084892
14787075 74 18058163011312129536
15196674 1 18410577249938532328
15209289 33 18271813461905810056
15309172 13 18409737287057414946
15852999 172 16732697251144165067
16752209 62 17345731037679618181
16945 1 18409166610331331514
17349148 13 18335690685407077682
18186145 218 17989213655025487504
200 152 18412256268412973069
20645477 70 18267581316969913231
21160774 45 18266173027464404919
21267235 1 18340496645951945934
21501502 16 18265326222942575073
21524375 3 18408604794755795258
21634736 98 18126838533067518022
23402539 116 18342737417001927524
23493267 7 14404920049939339379
23559900 14 18129097815294637078
2748010 2 17331404680031652488
2871803 45 18339353162781322511
34934 24 18268148665059886489
4409770 3 14163358909344469965
5104073 3 18337112272263873024
603831 33 18270384053845335727
633830 44 18336836299229711332
69090 78 18272652402579462326
7364860 26 18124881157704711418
7832392 63 18196935461412893624
81228 2 17544470212252063154
90525 40 17988641870028744559
9709674 26 18410019801263581083

> <PUBCHEM_SHAPE_MULTIPOLES>
379.04
7.76
2.41
1.18
5.21
0.5
0.14
-1.19
1
-0.51
-0.18
-1.22
0.34
-0.59

> <PUBCHEM_SHAPE_SELFOVERLAP>
815.441

> <PUBCHEM_SHAPE_VOLUME>
210.7

> <PUBCHEM_COORDINATE_TYPE>
2
5
10

$$$$
