92389
  -OEChem-07202400453D

 27 28  0     0  0  0  0  0  0999 V2000
    0.4026    2.9753   -0.0787 Cl  0  0  0  0  0  0  0  0  0  0  0  0
   -1.4020    0.8726    1.0071 O   0  0  0  0  0  0  0  0  0  0  0  0
    3.9398   -2.2241    0.0127 O   0  5  0  0  0  0  0  0  0  0  0  0
    4.5703   -0.2337   -0.6654 O   0  0  0  0  0  0  0  0  0  0  0  0
    3.0745    1.7171   -0.6441 N   0  0  0  0  0  0  0  0  0  0  0  0
    3.7054   -1.0116   -0.1994 N   0  3  0  0  0  0  0  0  0  0  0  0
   -0.1442    0.4437    0.7020 C   0  0  0  0  0  0  0  0  0  0  0  0
    2.0935    0.8410   -0.1175 C   0  0  0  0  0  0  0  0  0  0  0  0
    2.4110   -0.4998    0.0991 C   0  0  0  0  0  0  0  0  0  0  0  0
    0.8159    1.3128    0.1839 C   0  0  0  0  0  0  0  0  0  0  0  0
    0.1733   -0.8971    0.9189 C   0  0  0  0  0  0  0  0  0  0  0  0
    1.4509   -1.3690    0.6173 C   0  0  0  0  0  0  0  0  0  0  0  0
   -2.4612    0.2734    0.3486 C   0  0  0  0  0  0  0  0  0  0  0  0
   -2.3798    0.0728   -1.0179 C   0  0  0  0  0  0  0  0  0  0  0  0
   -3.5762   -0.1089    1.0731 C   0  0  0  0  0  0  0  0  0  0  0  0
   -3.4484   -0.5301   -1.6816 C   0  0  0  0  0  0  0  0  0  0  0  0
   -4.6447   -0.7120    0.4095 C   0  0  0  0  0  0  0  0  0  0  0  0
   -4.5807   -0.9226   -0.9678 C   0  0  0  0  0  0  0  0  0  0  0  0
   -0.5581   -1.5863    1.3330 H   0  0  0  0  0  0  0  0  0  0  0  0
    1.6581   -2.4199    0.8031 H   0  0  0  0  0  0  0  0  0  0  0  0
   -1.5183    0.3858   -1.6000 H   0  0  0  0  0  0  0  0  0  0  0  0
   -3.6274    0.0543    2.1454 H   0  0  0  0  0  0  0  0  0  0  0  0
    2.8275    2.6871   -0.7950 H   0  0  0  0  0  0  0  0  0  0  0  0
    4.0082    1.4140   -0.8722 H   0  0  0  0  0  0  0  0  0  0  0  0
   -3.4008   -0.6901   -2.7548 H   0  0  0  0  0  0  0  0  0  0  0  0
   -5.5264   -1.0174    0.9653 H   0  0  0  0  0  0  0  0  0  0  0  0
   -5.4131   -1.3911   -1.4848 H   0  0  0  0  0  0  0  0  0  0  0  0
  1 10  1  0  0  0  0
  2  7  1  0  0  0  0
  2 13  1  0  0  0  0
  3  6  1  0  0  0  0
  4  6  2  0  0  0  0
  5  8  1  0  0  0  0
  5 23  1  0  0  0  0
  5 24  1  0  0  0  0
  6  9  1  0  0  0  0
  7 10  2  0  0  0  0
  7 11  1  0  0  0  0
  8  9  2  0  0  0  0
  8 10  1  0  0  0  0
  9 12  1  0  0  0  0
 11 12  2  0  0  0  0
 11 19  1  0  0  0  0
 12 20  1  0  0  0  0
 13 14  2  0  0  0  0
 13 15  1  0  0  0  0
 14 16  1  0  0  0  0
 14 21  1  0  0  0  0
 15 17  2  0  0  0  0
 15 22  1  0  0  0  0
 16 18  2  0  0  0  0
 16 25  1  0  0  0  0
 17 18  1  0  0  0  0
 17 26  1  0  0  0  0
 18 27  1  0  0  0  0
M  CHG  2   3  -1   6   1
M  END
> <PUBCHEM_COMPOUND_CID>
92389

> <PUBCHEM_CONFORMER_RMSD>
0.6

> <PUBCHEM_CONFORMER_DIVERSEORDER>
1
2
6
7
5
3
4

> <PUBCHEM_MMFF94_PARTIAL_CHARGES>
27
1 -0.18
10 0.18
11 -0.15
12 -0.15
13 0.08
14 -0.15
15 -0.15
16 -0.15
17 -0.15
18 -0.15
19 0.15
2 -0.17
20 0.15
21 0.15
22 0.15
23 0.4
24 0.4
25 0.15
26 0.15
27 0.15
3 -0.52
4 -0.52
5 -0.9
6 0.91
7 0.08
8 0.1
9 0.13

> <PUBCHEM_EFFECTIVE_ROTOR_COUNT>
3

> <PUBCHEM_PHARMACOPHORE_FEATURES>
8
1 2 acceptor
1 3 acceptor
1 3 anion
1 4 acceptor
1 5 cation
1 5 donor
6 13 14 15 16 17 18 rings
6 7 8 9 10 11 12 rings

> <PUBCHEM_HEAVY_ATOM_COUNT>
18

> <PUBCHEM_ATOM_DEF_STEREO_COUNT>
0

> <PUBCHEM_ATOM_UDEF_STEREO_COUNT>
0

> <PUBCHEM_BOND_DEF_STEREO_COUNT>
0

> <PUBCHEM_BOND_UDEF_STEREO_COUNT>
0

> <PUBCHEM_ISOTOPIC_ATOM_COUNT>
0

> <PUBCHEM_COMPONENT_COUNT>
1

> <PUBCHEM_CACTVS_TAUTO_COUNT>
1

> <PUBCHEM_CONFORMER_ID>
000168E500000001

> <PUBCHEM_MMFF94_ENERGY>
78.9634

> <PUBCHEM_FEATURE_SELFOVERLAP>
40.676

> <PUBCHEM_SHAPE_FINGERPRINT>
10062212 137 18270964535823597747
10498660 4 15357683181229832319
11046707 91 17632854218338385523
11089746 13 11963394076438390694
11471102 20 18335139833949449601
11578080 2 17844786162471532265
11806522 49 18342455941624030464
12236239 1 17988649605375620617
12251169 10 11959724993140401689
12553582 1 18411974737480621627
14350574 20 18187091671559514147
14576447 43 18342454867782265446
14739800 52 13624098689883853364
15375462 189 18060421330616657467
16945 1 18338512061929271169
17357779 13 18040990735176563429
17804303 29 16128655284476361987
1813 80 18201449055413169173
18186145 218 17531247253377385993
18915474 69 18130219462630118367
19422 9 18130791183133266947
19784866 170 12175616291772209434
200 152 18411982451246880667
20291156 8 18272649034887174365
20361792 2 18271233972186435965
20600515 1 15841558457462701105
20645477 70 18334015007715956747
20671657 53 18411418397328731925
21634736 98 18127684040218956895
21713013 43 18114173186103754647
22112679 90 18059590052434232449
221357 26 18260820497865777005
221490 88 18191031307552713795
2255824 54 18127973211698089889
22646028 28 18131630088814353655
232386 152 16845286185529839389
23402539 116 18340487768534113466
23402655 69 18335981987068728757
23557571 272 14907634354112693576
23559900 14 18263650739675222672
23598291 2 18201723959448697061
2748010 2 17687196695720319048
2838139 119 15141540171972042406
3323516 105 18187645859853277179
3472631 163 14129330768295638191
465052 167 17773315841556604919
474 4 17769082780948915025
5281201 14 17749390364501675805
602551 16 15985097543957580838
633830 44 18040997341152495993
77492 1 17988932192796476681
9981440 41 17191771096939996913

> <PUBCHEM_SHAPE_MULTIPOLES>
344.73
8.74
2.02
1.15
2.14
1.1
0.18
-3.97
2.15
-2.03
0.03
1.07
-0.1
-0.43

> <PUBCHEM_SHAPE_SELFOVERLAP>
741.11

> <PUBCHEM_SHAPE_VOLUME>
190.3

> <PUBCHEM_COORDINATE_TYPE>
2
5
10

$$$$
