92396
  -OEChem-07202400573D

 31 35  0     1  0  0  0  0  0999 V2000
    5.8788   -1.3349    0.1120 Cl  0  0  0  0  0  0  0  0  0  0  0  0
    0.3900    0.8751   -0.1143 N   0  0  0  0  0  0  0  0  0  0  0  0
   -3.6299   -2.0754    0.3964 N   0  0  0  0  0  0  0  0  0  0  0  0
   -4.4657   -1.1296    0.2790 N   0  0  0  0  0  0  0  0  0  0  0  0
   -1.0330    2.4704   -0.2276 N   0  0  0  0  0  0  0  0  0  0  0  0
    0.1546    2.2017    0.0916 N   0  0  0  0  0  0  0  0  0  0  0  0
   -1.4423   -0.7836    0.3711 C   0  0  2  0  0  0  0  0  0  0  0  0
   -2.9039    0.8685    0.1737 C   0  0  1  0  0  0  0  0  0  0  0  0
   -0.7478    0.1635   -0.6420 C   0  0  1  0  0  0  0  0  0  0  0  0
   -2.6067   -1.4298   -0.4087 C   0  0  2  0  0  0  0  0  0  0  0  0
   -3.5976   -0.3057   -0.5452 C   0  0  1  0  0  0  0  0  0  0  0  0
   -2.1510    0.1881    1.3206 C   0  0  0  0  0  0  0  0  0  0  0  0
   -1.7527    1.3066   -0.7603 C   0  0  2  0  0  0  0  0  0  0  0  0
    1.6602    0.3641   -0.0620 C   0  0  0  0  0  0  0  0  0  0  0  0
    1.9518   -0.9371   -0.5370 C   0  0  0  0  0  0  0  0  0  0  0  0
    2.7368    1.1145    0.4687 C   0  0  0  0  0  0  0  0  0  0  0  0
    3.2449   -1.4579   -0.4839 C   0  0  0  0  0  0  0  0  0  0  0  0
    4.0298    0.5938    0.5222 C   0  0  0  0  0  0  0  0  0  0  0  0
    4.2837   -0.6924    0.0459 C   0  0  0  0  0  0  0  0  0  0  0  0
   -0.7822   -1.5034    0.8591 H   0  0  0  0  0  0  0  0  0  0  0  0
   -3.5788    1.6719    0.4760 H   0  0  0  0  0  0  0  0  0  0  0  0
   -0.5617   -0.2938   -1.6208 H   0  0  0  0  0  0  0  0  0  0  0  0
   -2.3513   -1.9842   -1.3161 H   0  0  0  0  0  0  0  0  0  0  0  0
   -3.9983   -0.1118   -1.5441 H   0  0  0  0  0  0  0  0  0  0  0  0
   -1.4741    0.8499    1.8683 H   0  0  0  0  0  0  0  0  0  0  0  0
   -2.8050   -0.3035    2.0470 H   0  0  0  0  0  0  0  0  0  0  0  0
   -2.0787    1.4881   -1.7897 H   0  0  0  0  0  0  0  0  0  0  0  0
    1.1753   -1.5730   -0.9546 H   0  0  0  0  0  0  0  0  0  0  0  0
    2.5767    2.1191    0.8547 H   0  0  0  0  0  0  0  0  0  0  0  0
    3.4285   -2.4619   -0.8577 H   0  0  0  0  0  0  0  0  0  0  0  0
    4.8295    1.2009    0.9386 H   0  0  0  0  0  0  0  0  0  0  0  0
  1 19  1  0  0  0  0
  2  6  1  0  0  0  0
  2  9  1  0  0  0  0
  2 14  1  0  0  0  0
  3  4  2  0  0  0  0
  3 10  1  0  0  0  0
  4 11  1  0  0  0  0
  5  6  2  0  0  0  0
  5 13  1  0  0  0  0
  7  9  1  0  0  0  0
  7 10  1  0  0  0  0
  7 12  1  0  0  0  0
  7 20  1  0  0  0  0
  8 11  1  0  0  0  0
  8 12  1  0  0  0  0
  8 13  1  0  0  0  0
  8 21  1  0  0  0  0
  9 13  1  0  0  0  0
  9 22  1  0  0  0  0
 10 11  1  0  0  0  0
 10 23  1  0  0  0  0
 11 24  1  0  0  0  0
 12 25  1  0  0  0  0
 12 26  1  0  0  0  0
 13 27  1  0  0  0  0
 14 15  2  0  0  0  0
 14 16  1  0  0  0  0
 15 17  1  0  0  0  0
 15 28  1  0  0  0  0
 16 18  2  0  0  0  0
 16 29  1  0  0  0  0
 17 19  2  0  0  0  0
 17 30  1  0  0  0  0
 18 19  1  0  0  0  0
 18 31  1  0  0  0  0
M  END
> <PUBCHEM_COMPOUND_CID>
92396

> <PUBCHEM_CONFORMER_RMSD>
0.6

> <PUBCHEM_CONFORMER_DIVERSEORDER>
1
2

> <PUBCHEM_MMFF94_PARTIAL_CHARGES>
20
1 -0.18
10 0.29
11 0.29
13 0.25
14 0.1
15 -0.15
16 -0.15
17 -0.15
18 -0.15
19 0.18
2 -0.43
28 0.15
29 0.15
3 -0.29
30 0.15
31 0.15
4 -0.29
5 -0.25
6 -0.04
9 0.37

> <PUBCHEM_EFFECTIVE_ROTOR_COUNT>
1.4

> <PUBCHEM_PHARMACOPHORE_FEATURES>
4
5 2 5 6 9 13 rings
6 14 15 16 17 18 19 rings
7 3 4 7 8 10 11 12 rings
7 7 8 9 10 11 12 13 rings

> <PUBCHEM_HEAVY_ATOM_COUNT>
19

> <PUBCHEM_ATOM_DEF_STEREO_COUNT>
6

> <PUBCHEM_ATOM_UDEF_STEREO_COUNT>
0

> <PUBCHEM_BOND_DEF_STEREO_COUNT>
0

> <PUBCHEM_BOND_UDEF_STEREO_COUNT>
0

> <PUBCHEM_ISOTOPIC_ATOM_COUNT>
0

> <PUBCHEM_COMPONENT_COUNT>
1

> <PUBCHEM_CACTVS_TAUTO_COUNT>
1

> <PUBCHEM_CONFORMER_ID>
000168EC00000001

> <PUBCHEM_MMFF94_ENERGY>
71.0428

> <PUBCHEM_FEATURE_SELFOVERLAP>
23.546

> <PUBCHEM_SHAPE_FINGERPRINT>
10366900 7 18334582339163806482
10616163 171 18338798914400325550
10618630 7 18408324405872833308
11046707 91 18409167701474525102
11315181 36 18113337480004180038
11543360 7 14779551230901630915
12032990 46 18409730685545000748
12251169 10 17846779628501801110
12363563 72 18261401077968780106
12916754 54 18411419527052830368
13214271 11 18272647918011171877
13224815 77 18411142437459177788
13288520 33 18410013217416151046
13296908 3 18410009944292173916
13544653 18 18334862752708334960
13583140 156 14476952355257171343
14115302 16 17240488056142362243
15196674 1 18411418419088314056
15309172 13 16917064443321175284
15352361 1 18410292531808183318
16945 1 17022905653251617305
17804303 29 18413392029258888996
1813 80 17748830734479086837
18186145 218 10809334529729960180
18927931 339 18336552620866589190
19141452 34 18272090535010891519
19862831 5 17022900146860684362
200 152 17846489344705292077
20261772 1 17988920111138135654
20281475 54 18337397131279114669
20374829 77 18335135384342225338
21267235 1 18410300219657257334
21682296 61 17344919516753059998
221490 88 18411982456042929688
22646028 28 18335703861971304142
22854114 59 18060414738105608568
2297311 6 18342468010851378022
23402539 116 18259981544507565542
23403322 49 18334856104146628450
23557571 272 18342179925487579372
23559900 14 18409157806086490752
26918003 58 18202562860755279562
2871803 45 18334851719132770690
312423 11 18334870419689415964
3286 77 17846494868001722792
335352 9 18409448060192470325
4214541 1 18339079294212843780
474 4 14116644667521724010
4921388 177 15936705816668196171
5104073 3 18343015563304904128
5283173 99 18188757354408752213
7364860 26 18122907800347090949
76465 3 18341888662386149639
81228 2 18188217502599524569
83771 10 18411420626400849828
8809292 202 18335423460979069194
9709674 26 18262238944647465922

> <PUBCHEM_SHAPE_MULTIPOLES>
367.98
9.61
2.02
0.86
8.91
0.44
0.08
-5.05
0.82
-0.68
-0.06
-0.26
0.01
0.48

> <PUBCHEM_SHAPE_SELFOVERLAP>
830.851

> <PUBCHEM_SHAPE_VOLUME>
198.2

> <PUBCHEM_COORDINATE_TYPE>
2
5
10

$$$$
