93379
  -OEChem-07202400553D

 27 28  0     0  0  0  0  0  0999 V2000
    5.8635   -1.5469    0.0011 Cl  0  0  0  0  0  0  0  0  0  0  0  0
   -0.4277    1.3526   -0.0010 O   0  0  0  0  0  0  0  0  0  0  0  0
   -1.4782   -0.7416   -0.0004 N   0  0  0  0  0  0  0  0  0  0  0  0
    0.8284   -0.6201   -0.0007 N   0  0  0  0  0  0  0  0  0  0  0  0
    4.7695    0.8027    0.0009 N   0  0  0  0  0  0  0  0  0  0  0  0
   -2.8348   -0.4154   -0.0003 C   0  0  0  0  0  0  0  0  0  0  0  0
    2.1593   -0.1399   -0.0010 C   0  0  0  0  0  0  0  0  0  0  0  0
   -0.3602    0.1276   -0.0007 C   0  0  0  0  0  0  0  0  0  0  0  0
   -3.7953   -1.4269    0.0000 C   0  0  0  0  0  0  0  0  0  0  0  0
   -3.2307    0.9223    0.0001 C   0  0  0  0  0  0  0  0  0  0  0  0
    3.2054   -1.0407   -0.0006 C   0  0  0  0  0  0  0  0  0  0  0  0
    2.3885    1.2216   -0.0003 C   0  0  0  0  0  0  0  0  0  0  0  0
   -5.1516   -1.1011    0.0005 C   0  0  0  0  0  0  0  0  0  0  0  0
   -4.5871    1.2481    0.0007 C   0  0  0  0  0  0  0  0  0  0  0  0
   -5.5474    0.2364    0.0009 C   0  0  0  0  0  0  0  0  0  0  0  0
    4.4893   -0.5197    0.0002 C   0  0  0  0  0  0  0  0  0  0  0  0
    3.7090    1.6412    0.0006 C   0  0  0  0  0  0  0  0  0  0  0  0
   -1.2683   -1.7367   -0.0003 H   0  0  0  0  0  0  0  0  0  0  0  0
    0.7297   -1.6322   -0.0006 H   0  0  0  0  0  0  0  0  0  0  0  0
   -3.5013   -2.4735   -0.0001 H   0  0  0  0  0  0  0  0  0  0  0  0
   -2.5506    1.7619    0.0000 H   0  0  0  0  0  0  0  0  0  0  0  0
    3.0325   -2.1120   -0.0007 H   0  0  0  0  0  0  0  0  0  0  0  0
    1.6359    1.9934   -0.0004 H   0  0  0  0  0  0  0  0  0  0  0  0
   -5.8995   -1.8886    0.0008 H   0  0  0  0  0  0  0  0  0  0  0  0
   -4.8970    2.2892    0.0010 H   0  0  0  0  0  0  0  0  0  0  0  0
   -6.6034    0.4901    0.0014 H   0  0  0  0  0  0  0  0  0  0  0  0
    3.9573    2.6976    0.0012 H   0  0  0  0  0  0  0  0  0  0  0  0
  1 16  1  0  0  0  0
  2  8  2  0  0  0  0
  3  6  1  0  0  0  0
  3  8  1  0  0  0  0
  3 18  1  0  0  0  0
  4  7  1  0  0  0  0
  4  8  1  0  0  0  0
  4 19  1  0  0  0  0
  5 16  2  0  0  0  0
  5 17  1  0  0  0  0
  6  9  2  0  0  0  0
  6 10  1  0  0  0  0
  7 11  2  0  0  0  0
  7 12  1  0  0  0  0
  9 13  1  0  0  0  0
  9 20  1  0  0  0  0
 10 14  2  0  0  0  0
 10 21  1  0  0  0  0
 11 16  1  0  0  0  0
 11 22  1  0  0  0  0
 12 17  2  0  0  0  0
 12 23  1  0  0  0  0
 13 15  2  0  0  0  0
 13 24  1  0  0  0  0
 14 15  1  0  0  0  0
 14 25  1  0  0  0  0
 15 26  1  0  0  0  0
 17 27  1  0  0  0  0
M  END
> <PUBCHEM_COMPOUND_CID>
93379

> <PUBCHEM_CONFORMER_RMSD>
0.6

> <PUBCHEM_CONFORMER_DIVERSEORDER>
1
9
8
6
4
10
7
3
5
2

> <PUBCHEM_MMFF94_PARTIAL_CHARGES>
27
1 -0.18
10 -0.15
11 -0.15
12 -0.15
13 -0.15
14 -0.15
15 -0.15
16 0.49
17 0.16
18 0.37
19 0.37
2 -0.57
20 0.15
21 0.15
22 0.15
23 0.15
24 0.15
25 0.15
26 0.15
27 0.15
3 -0.55
4 -0.55
5 -0.62
6 0.12
7 0.12
8 0.69
9 -0.15

> <PUBCHEM_EFFECTIVE_ROTOR_COUNT>
4

> <PUBCHEM_PHARMACOPHORE_FEATURES>
6
1 2 acceptor
1 3 donor
1 4 donor
1 5 acceptor
6 5 7 11 12 16 17 rings
6 6 9 10 13 14 15 rings

> <PUBCHEM_HEAVY_ATOM_COUNT>
17

> <PUBCHEM_ATOM_DEF_STEREO_COUNT>
0

> <PUBCHEM_ATOM_UDEF_STEREO_COUNT>
0

> <PUBCHEM_BOND_DEF_STEREO_COUNT>
0

> <PUBCHEM_BOND_UDEF_STEREO_COUNT>
0

> <PUBCHEM_ISOTOPIC_ATOM_COUNT>
0

> <PUBCHEM_COMPONENT_COUNT>
1

> <PUBCHEM_CACTVS_TAUTO_COUNT>
5

> <PUBCHEM_CONFORMER_ID>
00016CC300000001

> <PUBCHEM_MMFF94_ENERGY>
51.8531

> <PUBCHEM_FEATURE_SELFOVERLAP>
30.494

> <PUBCHEM_SHAPE_FINGERPRINT>
10680689 15 17385723586969947901
11287383 113 18410293635487885643
11315181 36 18202566176797034409
12107183 9 17762055432899622587
12236239 1 18344146994485992963
12616971 3 17917706924391099325
13167823 11 18410571807724741135
13288520 33 18411138039771408095
1420 363 18040441009833400779
14251731 8 18335981978214835735
14341114 176 18408890650118996001
15196674 1 18410575101848294309
15788980 27 18131068242482774751
17834072 33 18341612645980172839
17844677 252 18410863161189536129
18186145 218 17749101209996806322
19433438 28 18333450954377751569
200 152 18202001023166680912
20645477 70 18413110533298166766
21267235 1 18410300198171695970
21709351 56 18335977614633552047
23402539 116 18343578543175311919
23402655 69 18341332266652710852
23536379 177 18411700971732570650
23557571 272 17458342992415221183
23559900 14 18410570712460322352
239999 70 18342179956085399302
26918003 58 18272369762996720994
29717793 49 18059858346118927036
3004659 81 18334577919800506298
351380 180 18409729573159020633
3545911 37 18409450276115753405
4073 2 18041002898898472626
42 15 18408605859374668495
4214541 1 18410856542903233413
42788 4 18410575089163858983
465052 167 18342461426714440742
5104073 3 18411982476758209289
5374978 207 18413101771522444712
542803 24 13695585542449343103
559249 180 18410289168943827043
57483677 66 18411417319228754031
7495541 125 17560797792188677579
77779 3 18410575106322577189
90127 26 18040440987926248912
9971528 1 17894912953516024156

> <PUBCHEM_SHAPE_MULTIPOLES>
330.91
14.47
1.63
0.6
0.11
0.13
0
-2.66
-0.01
-0.61
0
0
-0.01
0

> <PUBCHEM_SHAPE_SELFOVERLAP>
697.959

> <PUBCHEM_SHAPE_VOLUME>
185

> <PUBCHEM_COORDINATE_TYPE>
2
5
10

$$$$
