93482
  -OEChem-07202400443D

 36 37  0     1  0  0  0  0  0999 V2000
    3.6144    2.4915    0.3449 Cl  0  0  0  0  0  0  0  0  0  0  0  0
    5.5503   -2.5187   -0.5356 Cl  0  0  0  0  0  0  0  0  0  0  0  0
    1.0188    1.0518    0.5970 O   0  0  0  0  0  0  0  0  0  0  0  0
   -1.3300    0.2511    1.5152 O   0  0  0  0  0  0  0  0  0  0  0  0
   -2.3554    0.4205   -0.5901 N   0  0  0  0  0  0  0  0  0  0  0  0
   -0.0365    1.0416   -0.3513 C   0  0  1  0  0  0  0  0  0  0  0  0
    2.0990    0.2491    0.3320 C   0  0  0  0  0  0  0  0  0  0  0  0
   -1.3085    0.5289    0.3195 C   0  0  0  0  0  0  0  0  0  0  0  0
   -0.2233    2.4439   -0.9112 C   0  0  0  0  0  0  0  0  0  0  0  0
    4.4522   -0.0616   -0.0804 C   0  0  0  0  0  0  0  0  0  0  0  0
    3.3752    0.7833    0.1884 C   0  0  0  0  0  0  0  0  0  0  0  0
    1.8874   -1.1204    0.2103 C   0  0  0  0  0  0  0  0  0  0  0  0
   -3.6772   -0.0173   -0.3365 C   0  0  0  0  0  0  0  0  0  0  0  0
    4.2467   -1.4357   -0.2038 C   0  0  0  0  0  0  0  0  0  0  0  0
    2.9642   -1.9650   -0.0585 C   0  0  0  0  0  0  0  0  0  0  0  0
    5.8315    0.5029   -0.2376 C   0  0  0  0  0  0  0  0  0  0  0  0
   -4.5866   -0.0657   -1.3800 C   0  0  0  0  0  0  0  0  0  0  0  0
   -4.0332   -0.3883    0.9496 C   0  0  0  0  0  0  0  0  0  0  0  0
   -5.8893   -0.4974   -1.1303 C   0  0  0  0  0  0  0  0  0  0  0  0
   -5.3359   -0.8200    1.1992 C   0  0  0  0  0  0  0  0  0  0  0  0
   -6.2639   -0.8745    0.1591 C   0  0  0  0  0  0  0  0  0  0  0  0
    0.1861    0.3731   -1.1949 H   0  0  0  0  0  0  0  0  0  0  0  0
   -0.5149    3.1409   -0.1172 H   0  0  0  0  0  0  0  0  0  0  0  0
   -0.9855    2.4862   -1.6943 H   0  0  0  0  0  0  0  0  0  0  0  0
    0.7174    2.8173   -1.3300 H   0  0  0  0  0  0  0  0  0  0  0  0
   -2.1652    0.6620   -1.5597 H   0  0  0  0  0  0  0  0  0  0  0  0
    0.8974   -1.5505    0.3320 H   0  0  0  0  0  0  0  0  0  0  0  0
    2.7875   -3.0338   -0.1491 H   0  0  0  0  0  0  0  0  0  0  0  0
    5.9746    0.8591   -1.2630 H   0  0  0  0  0  0  0  0  0  0  0  0
    6.6254   -0.2127   -0.0080 H   0  0  0  0  0  0  0  0  0  0  0  0
    6.0162    1.3312    0.4542 H   0  0  0  0  0  0  0  0  0  0  0  0
   -4.3053    0.2259   -2.3880 H   0  0  0  0  0  0  0  0  0  0  0  0
   -3.3757   -0.3718    1.8060 H   0  0  0  0  0  0  0  0  0  0  0  0
   -6.6119   -0.5399   -1.9399 H   0  0  0  0  0  0  0  0  0  0  0  0
   -5.6293   -1.1136    2.2030 H   0  0  0  0  0  0  0  0  0  0  0  0
   -7.2783   -1.2106    0.3535 H   0  0  0  0  0  0  0  0  0  0  0  0
  1 11  1  0  0  0  0
  2 14  1  0  0  0  0
  3  6  1  0  0  0  0
  3  7  1  0  0  0  0
  4  8  2  0  0  0  0
  5  8  1  0  0  0  0
  5 13  1  0  0  0  0
  5 26  1  0  0  0  0
  6  8  1  0  0  0  0
  6  9  1  0  0  0  0
  6 22  1  0  0  0  0
  7 11  2  0  0  0  0
  7 12  1  0  0  0  0
  9 23  1  0  0  0  0
  9 24  1  0  0  0  0
  9 25  1  0  0  0  0
 10 11  1  0  0  0  0
 10 14  2  0  0  0  0
 10 16  1  0  0  0  0
 12 15  2  0  0  0  0
 12 27  1  0  0  0  0
 13 17  2  0  0  0  0
 13 18  1  0  0  0  0
 14 15  1  0  0  0  0
 15 28  1  0  0  0  0
 16 29  1  0  0  0  0
 16 30  1  0  0  0  0
 16 31  1  0  0  0  0
 17 19  1  0  0  0  0
 17 32  1  0  0  0  0
 18 20  2  0  0  0  0
 18 33  1  0  0  0  0
 19 21  2  0  0  0  0
 19 34  1  0  0  0  0
 20 21  1  0  0  0  0
 20 35  1  0  0  0  0
 21 36  1  0  0  0  0
M  END
> <PUBCHEM_COMPOUND_CID>
93482

> <PUBCHEM_CONFORMER_RMSD>
0.8

> <PUBCHEM_CONFORMER_DIVERSEORDER>
1
20
18
44
70
8
54
19
6
37
52
10
25
29
45
36
40
46
17
65
30
56
69
71
50
22
13
38
26
64
59
4
60
32
55
41
15
11
35
67
2
68
31
23
66
39
51
42
3
58
33
21
62
24
34
16
5
43
48
53
28
57
12
27
47
61
7
49
14
63
9

> <PUBCHEM_MMFF94_PARTIAL_CHARGES>
28
1 -0.18
10 -0.14
11 0.18
12 -0.15
13 0.12
14 0.18
15 -0.15
16 0.14
17 -0.15
18 -0.15
19 -0.15
2 -0.18
20 -0.15
21 -0.15
26 0.37
27 0.15
28 0.15
3 -0.36
32 0.15
33 0.15
34 0.15
35 0.15
36 0.15
4 -0.57
5 -0.55
6 0.34
7 0.08
8 0.57

> <PUBCHEM_EFFECTIVE_ROTOR_COUNT>
5

> <PUBCHEM_PHARMACOPHORE_FEATURES>
5
1 3 acceptor
1 4 acceptor
1 5 donor
6 13 17 18 19 20 21 rings
6 7 10 11 12 14 15 rings

> <PUBCHEM_HEAVY_ATOM_COUNT>
21

> <PUBCHEM_ATOM_DEF_STEREO_COUNT>
0

> <PUBCHEM_ATOM_UDEF_STEREO_COUNT>
1

> <PUBCHEM_BOND_DEF_STEREO_COUNT>
0

> <PUBCHEM_BOND_UDEF_STEREO_COUNT>
0

> <PUBCHEM_ISOTOPIC_ATOM_COUNT>
0

> <PUBCHEM_COMPONENT_COUNT>
1

> <PUBCHEM_CACTVS_TAUTO_COUNT>
2

> <PUBCHEM_CONFORMER_ID>
00016D2A00000001

> <PUBCHEM_MMFF94_ENERGY>
69.001

> <PUBCHEM_FEATURE_SELFOVERLAP>
25.381

> <PUBCHEM_SHAPE_FINGERPRINT>
10366900 7 17968668120714203674
10447042 23 18408037395052854966
10912923 1 17346319340698451641
12107183 9 17626681396787841665
12236239 1 17775851215820552065
12516196 113 18342174483743039689
12596602 18 16415474978092481083
12616971 3 17847058887312199981
12633257 1 16415195698107445165
12730499 353 18337393837745918032
13167823 11 18202563973478765747
13402501 40 18260552225160000811
13533116 47 18201721777536700240
13544653 18 18412265030099037301
13685833 64 18335424578060969299
13955234 65 18271801380564012856
14341114 328 16702024179585185151
14386348 63 18040716987178041491
14840074 17 18273496788438118991
15183329 4 18337380545059611317
15188451 53 15194985177492961549
15537594 2 18201717370800170958
15961568 22 16588308357914511980
17492 89 18051130294734272950
17844677 252 18411984659071593421
17857418 61 17917989482074198983
17870717 6 17458064855303461899
1813 80 18272382957342346877
200 152 18272369758912750433
20028762 73 18060416876963464630
20645477 70 18409445890653587338
21033650 10 16154270477481759317
21267235 1 18271812268643776390
21623969 137 18410862074710730699
21637258 2 17917702474863268827
220451 1 17917433163502667173
22061861 79 18334853914008661335
2215653 11 18260257556686809007
22224240 67 18271234041470467584
2297311 6 17312823776031744743
23522609 53 17773061780269760369
23557571 272 17458337524832500813
23559900 14 18186521046193644656
23569914 152 17255648947543250743
239999 70 18040995176568165184
2767999 5 12035450553426047791
2871803 45 18260265214107121354
3004659 81 18040996215781594986
314194 84 18272087214489332223
3411729 13 15122363606635202962
345986 75 17917706842818499555
34797466 226 17313110782156206101
351380 180 9295291638215686587
351380 3 17917989469052374623
42630746 31 18343299306182822728
46194498 28 17603867848776578621
465052 167 18201722851252189646
5104073 3 18269832022057613904
5283173 99 17604139342434182213
5718773 13 18191020098363850082

> <PUBCHEM_SHAPE_MULTIPOLES>
419.19
15.78
2.18
1.08
10.34
0.28
-0.01
-7
1.59
-3.69
0.27
1.37
0.01
0.86

> <PUBCHEM_SHAPE_SELFOVERLAP>
871.892

> <PUBCHEM_SHAPE_VOLUME>
240.2

> <PUBCHEM_COORDINATE_TYPE>
2
5
10

$$$$
