93539
  -OEChem-07202400473D

 39 40  0     0  0  0  0  0  0999 V2000
   -2.1082    0.7146   -1.0753 S   0  0  0  0  0  0  0  0  0  0  0  0
   -6.3338   -0.6483   -0.2695 F   0  0  0  0  0  0  0  0  0  0  0  0
   -5.2521    0.9185   -1.3083 F   0  0  0  0  0  0  0  0  0  0  0  0
   -4.6086   -1.1503   -1.4943 F   0  0  0  0  0  0  0  0  0  0  0  0
   -2.8213    1.8853   -1.5865 O   0  0  0  0  0  0  0  0  0  0  0  0
   -2.0868   -0.5189   -1.8646 O   0  0  0  0  0  0  0  0  0  0  0  0
    0.4454   -0.9469   -0.6669 O   0  0  0  0  0  0  0  0  0  0  0  0
    4.5243   -2.8352    0.0069 O   0  0  0  0  0  0  0  0  0  0  0  0
    6.3616    1.5169    0.4007 O   0  0  0  0  0  0  0  0  0  0  0  0
   -0.4728    1.1835   -0.7859 N   0  0  0  0  0  0  0  0  0  0  0  0
   -2.0051    0.4957    1.4875 N   0  0  0  0  0  0  0  0  0  0  0  0
    1.8108    0.9289   -0.4000 N   0  0  0  0  0  0  0  0  0  0  0  0
    3.1597   -0.9713   -0.1979 N   0  0  0  0  0  0  0  0  0  0  0  0
    4.0937    1.2411    0.0020 N   0  0  0  0  0  0  0  0  0  0  0  0
   -2.8565    0.3383    0.4492 C   0  0  0  0  0  0  0  0  0  0  0  0
   -4.1726   -0.0746    0.5809 C   0  0  0  0  0  0  0  0  0  0  0  0
   -4.6455   -0.3431    1.8607 C   0  0  0  0  0  0  0  0  0  0  0  0
   -5.0726   -0.2334   -0.5947 C   0  0  0  0  0  0  0  0  0  0  0  0
   -3.7997   -0.1928    2.9540 C   0  0  0  0  0  0  0  0  0  0  0  0
    0.6160    0.2651   -0.6177 C   0  0  0  0  0  0  0  0  0  0  0  0
   -2.5003    0.2253    2.7161 C   0  0  0  0  0  0  0  0  0  0  0  0
    3.0917    0.3688   -0.1870 C   0  0  0  0  0  0  0  0  0  0  0  0
    4.3956   -1.4715    0.0082 C   0  0  0  0  0  0  0  0  0  0  0  0
    5.3012    0.6730    0.2020 C   0  0  0  0  0  0  0  0  0  0  0  0
    5.5142   -0.6903    0.2155 C   0  0  0  0  0  0  0  0  0  0  0  0
    3.3383   -3.5903   -0.2116 C   0  0  0  0  0  0  0  0  0  0  0  0
    6.0834    2.9121    0.3764 C   0  0  0  0  0  0  0  0  0  0  0  0
   -0.2693    2.1906   -0.7770 H   0  0  0  0  0  0  0  0  0  0  0  0
   -5.6680   -0.6701    2.0263 H   0  0  0  0  0  0  0  0  0  0  0  0
   -4.1464   -0.3965    3.9606 H   0  0  0  0  0  0  0  0  0  0  0  0
   -1.8007    0.3578    3.5348 H   0  0  0  0  0  0  0  0  0  0  0  0
    1.7852    1.9447   -0.3863 H   0  0  0  0  0  0  0  0  0  0  0  0
    6.4949   -1.1191    0.3783 H   0  0  0  0  0  0  0  0  0  0  0  0
    3.6044   -4.6511   -0.1836 H   0  0  0  0  0  0  0  0  0  0  0  0
    2.6037   -3.4054    0.5795 H   0  0  0  0  0  0  0  0  0  0  0  0
    2.9118   -3.3751   -1.1971 H   0  0  0  0  0  0  0  0  0  0  0  0
    5.3873    3.1876    1.1757 H   0  0  0  0  0  0  0  0  0  0  0  0
    5.6959    3.2183   -0.6011 H   0  0  0  0  0  0  0  0  0  0  0  0
    7.0229    3.4456    0.5488 H   0  0  0  0  0  0  0  0  0  0  0  0
  1  5  2  0  0  0  0
  1  6  2  0  0  0  0
  1 10  1  0  0  0  0
  1 15  1  0  0  0  0
  2 18  1  0  0  0  0
  3 18  1  0  0  0  0
  4 18  1  0  0  0  0
  7 20  2  0  0  0  0
  8 23  1  0  0  0  0
  8 26  1  0  0  0  0
  9 24  1  0  0  0  0
  9 27  1  0  0  0  0
 10 20  1  0  0  0  0
 10 28  1  0  0  0  0
 11 15  1  0  0  0  0
 11 21  2  0  0  0  0
 12 20  1  0  0  0  0
 12 22  1  0  0  0  0
 12 32  1  0  0  0  0
 13 22  1  0  0  0  0
 13 23  2  0  0  0  0
 14 22  2  0  0  0  0
 14 24  1  0  0  0  0
 15 16  2  0  0  0  0
 16 17  1  0  0  0  0
 16 18  1  0  0  0  0
 17 19  2  0  0  0  0
 17 29  1  0  0  0  0
 19 21  1  0  0  0  0
 19 30  1  0  0  0  0
 21 31  1  0  0  0  0
 23 25  1  0  0  0  0
 24 25  2  0  0  0  0
 25 33  1  0  0  0  0
 26 34  1  0  0  0  0
 26 35  1  0  0  0  0
 26 36  1  0  0  0  0
 27 37  1  0  0  0  0
 27 38  1  0  0  0  0
 27 39  1  0  0  0  0
M  END
> <PUBCHEM_COMPOUND_CID>
93539

> <PUBCHEM_CONFORMER_RMSD>
1

> <PUBCHEM_CONFORMER_DIVERSEORDER>
1
72
17
22
25
11
79
40
43
6
45
69
9
12
35
26
19
55
32
73
75
38
36
65
48
74
23
47
34
49
27
54
7
78
21
8
62
13
57
30
52
53
70
56
46
76
59
33
18
58
71
42
68
3
31
39
64
5
50
61
66
2
41
24
37
51
10
20
4
44
15
60
63
14
28
16
29
77
67

> <PUBCHEM_MMFF94_PARTIAL_CHARGES>
33
1 1.45
10 -0.79
11 -0.62
12 -0.55
13 -0.62
14 -0.62
15 0.3
16 -0.14
17 -0.15
18 1.16
19 -0.15
2 -0.34
20 0.87
21 0.16
22 0.74
23 0.39
24 0.39
25 -0.15
26 0.28
27 0.28
28 0.42
29 0.15
3 -0.34
30 0.15
31 0.15
32 0.37
33 0.15
4 -0.34
5 -0.65
6 -0.65
7 -0.57
8 -0.36
9 -0.36

> <PUBCHEM_EFFECTIVE_ROTOR_COUNT>
8

> <PUBCHEM_PHARMACOPHORE_FEATURES>
9
1 10 donor
1 11 acceptor
1 12 donor
1 5 acceptor
1 6 acceptor
1 7 acceptor
1 9 acceptor
6 11 15 16 17 19 21 rings
6 13 14 22 23 24 25 rings

> <PUBCHEM_HEAVY_ATOM_COUNT>
27

> <PUBCHEM_ATOM_DEF_STEREO_COUNT>
0

> <PUBCHEM_ATOM_UDEF_STEREO_COUNT>
0

> <PUBCHEM_BOND_DEF_STEREO_COUNT>
0

> <PUBCHEM_BOND_UDEF_STEREO_COUNT>
0

> <PUBCHEM_ISOTOPIC_ATOM_COUNT>
0

> <PUBCHEM_COMPONENT_COUNT>
1

> <PUBCHEM_CACTVS_TAUTO_COUNT>
5

> <PUBCHEM_CONFORMER_ID>
00016D6300000001

> <PUBCHEM_MMFF94_ENERGY>
55.6299

> <PUBCHEM_FEATURE_SELFOVERLAP>
45.737

> <PUBCHEM_SHAPE_FINGERPRINT>
10 15 17895469345703587824
10912923 1 17703794703993199906
11059845 2 15693514521220961850
11315181 36 16298389075772340372
11595378 159 16629962118638883738
11796584 16 16805325508759335401
11809386 21 14635440462959287169
12107183 9 17553212008266021330
12236239 1 17703793617398141744
12390115 104 14045199445504274195
12596602 18 17846780719391949674
12730499 353 18408604769450013854
13533116 47 18201716232676041554
13631057 29 17985820677658362855
14341114 328 17346609542748079619
14386348 63 17676212359641212226
14910302 57 16081361891635505314
15183329 4 13767926823145493858
15685185 35 17484515995644319968
15880784 105 18412544288614127899
17844677 252 18340207388990620676
17870717 6 16588315960206604003
19377110 9 17775562027309593626
19489759 90 17022899047502277853
19958102 18 15140950760466575651
20645477 70 18335412414697860278
21065198 48 17775008959780358802
21623969 137 18334014991190098258
22849339 104 15792314634453069387
23557571 272 17240761731827631908
23559900 14 16733267957729531485
23572383 38 17822016414752030730
239999 70 17676491644859653122
3004659 81 13623530143614437866
3383291 50 16950853591690568011
341906 21 15698001782364872362
38570 142 17987255472583395580
4015057 19 17896035610954900741
4073 2 17749109954867017908
5104073 3 18187643540634656976
559249 180 14634863180536416305
90127 26 18334577889424551044

> <PUBCHEM_SHAPE_MULTIPOLES>
483.42
16.35
2.35
1.93
7.44
1.35
-1.24
-1.61
-1.8
5.61
0.29
-4.16
-0.14
0.88

> <PUBCHEM_SHAPE_SELFOVERLAP>
1014.847

> <PUBCHEM_SHAPE_VOLUME>
274

> <PUBCHEM_COORDINATE_TYPE>
2
5
10

$$$$
