93541
  -OEChem-07202400553D

 41 42  0     1  0  0  0  0  0999 V2000
   -2.7433   -3.0825   -0.0687 Cl  0  0  0  0  0  0  0  0  0  0  0  0
   -4.6644    1.6389   -1.0951 F   0  0  0  0  0  0  0  0  0  0  0  0
   -4.0047    0.7534    0.8093 F   0  0  0  0  0  0  0  0  0  0  0  0
   -5.8837   -1.2175    0.5443 F   0  0  0  0  0  0  0  0  0  0  0  0
    5.4979   -1.8992   -0.4506 F   0  0  0  0  0  0  0  0  0  0  0  0
    7.2023    2.3407    0.8455 F   0  0  0  0  0  0  0  0  0  0  0  0
   -8.0459   -0.7315    1.5465 F   0  0  0  0  0  0  0  0  0  0  0  0
   -8.6859    0.2455   -0.3061 F   0  0  0  0  0  0  0  0  0  0  0  0
   -8.7318    1.3600    1.5785 F   0  0  0  0  0  0  0  0  0  0  0  0
   -3.8112   -0.4676   -1.1047 O   0  0  0  0  0  0  0  0  0  0  0  0
   -6.7263    0.8718    0.6138 O   0  0  0  0  0  0  0  0  0  0  0  0
    2.3412    1.6328   -0.9066 O   0  0  0  0  0  0  0  0  0  0  0  0
    5.0792    2.0439   -0.6445 O   0  0  0  0  0  0  0  0  0  0  0  0
    1.6786   -0.5347   -0.2734 N   0  0  0  0  0  0  0  0  0  0  0  0
    3.9090    0.0907   -0.1549 N   0  0  0  0  0  0  0  0  0  0  0  0
   -2.4600   -0.5061   -0.8931 C   0  0  0  0  0  0  0  0  0  0  0  0
    0.2987   -0.5255   -0.4798 C   0  0  0  0  0  0  0  0  0  0  0  0
   -4.5871    0.4870   -0.3845 C   0  0  0  0  0  0  0  0  0  0  0  0
   -1.8347   -1.6572   -0.4141 C   0  0  0  0  0  0  0  0  0  0  0  0
   -1.7059    0.6353   -1.1654 C   0  0  0  0  0  0  0  0  0  0  0  0
   -0.4553   -1.6670   -0.2075 C   0  0  0  0  0  0  0  0  0  0  0  0
   -0.3265    0.6257   -0.9588 C   0  0  0  0  0  0  0  0  0  0  0  0
   -5.9808   -0.0592   -0.1619 C   0  0  1  0  0  0  0  0  0  0  0  0
    6.3183    0.2368    0.1864 C   0  0  0  0  0  0  0  0  0  0  0  0
    2.6039    0.5085   -0.4875 C   0  0  0  0  0  0  0  0  0  0  0  0
    5.0541    0.8798   -0.2541 C   0  0  0  0  0  0  0  0  0  0  0  0
    6.4785   -1.1434    0.0640 C   0  0  0  0  0  0  0  0  0  0  0  0
    7.3453    1.0131    0.7231 C   0  0  0  0  0  0  0  0  0  0  0  0
    7.6656   -1.7472    0.4781 C   0  0  0  0  0  0  0  0  0  0  0  0
    8.5325    0.4093    1.1373 C   0  0  0  0  0  0  0  0  0  0  0  0
    8.6928   -0.9709    1.0148 C   0  0  0  0  0  0  0  0  0  0  0  0
   -8.0501    0.4361    0.8698 C   0  0  0  0  0  0  0  0  0  0  0  0
   -2.1773    1.5367   -1.5475 H   0  0  0  0  0  0  0  0  0  0  0  0
    0.0340   -2.5641    0.1662 H   0  0  0  0  0  0  0  0  0  0  0  0
    0.1882    1.5464   -1.1943 H   0  0  0  0  0  0  0  0  0  0  0  0
   -6.4798   -0.2682   -1.1143 H   0  0  0  0  0  0  0  0  0  0  0  0
    2.0639   -1.4083    0.0769 H   0  0  0  0  0  0  0  0  0  0  0  0
    3.9968   -0.8545    0.2067 H   0  0  0  0  0  0  0  0  0  0  0  0
    7.7900   -2.8217    0.3826 H   0  0  0  0  0  0  0  0  0  0  0  0
    9.3320    1.0139    1.5552 H   0  0  0  0  0  0  0  0  0  0  0  0
    9.6172   -1.4410    1.3373 H   0  0  0  0  0  0  0  0  0  0  0  0
  1 19  1  0  0  0  0
  2 18  1  0  0  0  0
  3 18  1  0  0  0  0
  4 23  1  0  0  0  0
  5 27  1  0  0  0  0
  6 28  1  0  0  0  0
  7 32  1  0  0  0  0
  8 32  1  0  0  0  0
  9 32  1  0  0  0  0
 10 16  1  0  0  0  0
 10 18  1  0  0  0  0
 11 23  1  0  0  0  0
 11 32  1  0  0  0  0
 12 25  2  0  0  0  0
 13 26  2  0  0  0  0
 14 17  1  0  0  0  0
 14 25  1  0  0  0  0
 14 37  1  0  0  0  0
 15 25  1  0  0  0  0
 15 26  1  0  0  0  0
 15 38  1  0  0  0  0
 16 19  2  0  0  0  0
 16 20  1  0  0  0  0
 17 21  2  0  0  0  0
 17 22  1  0  0  0  0
 18 23  1  0  0  0  0
 19 21  1  0  0  0  0
 20 22  2  0  0  0  0
 20 33  1  0  0  0  0
 21 34  1  0  0  0  0
 22 35  1  0  0  0  0
 23 36  1  0  0  0  0
 24 26  1  0  0  0  0
 24 27  2  0  0  0  0
 24 28  1  0  0  0  0
 27 29  1  0  0  0  0
 28 30  2  0  0  0  0
 29 31  2  0  0  0  0
 29 39  1  0  0  0  0
 30 31  1  0  0  0  0
 30 40  1  0  0  0  0
 31 41  1  0  0  0  0
M  END
> <PUBCHEM_COMPOUND_CID>
93541

> <PUBCHEM_CONFORMER_RMSD>
1

> <PUBCHEM_CONFORMER_DIVERSEORDER>
1
169
86
119
112
89
131
150
147
107
97
43
163
117
157
162
105
84
99
168
61
123
129
92
59
159
155
42
49
69
141
165
102
135
103
109
44
142
167
125
173
26
58
161
145
68
53
88
153
80
95
156
170
154
116
98
110
140
120
31
27
136
144
63
65
151
66
124
21
50
41
79
81
45
128
101
78
67
121
39
164
48
36
114
29
90
113
37
35
100
118
132
70
96
111
52
160
172
138
75
152
82
133
15
137
143
104
60
91
55
72
93
146
134
115
46
56
20
106
171
64
139
74
24
127
126
108
122
73
83
47
85
77
33
158
62
76
12
17
148
54
34
30
166
13
40
149
57
22
18
130
87
14
51
32
25
94
71
28
38
4
11
3
7
6
9
2
8
5
23
19
16
10

> <PUBCHEM_MMFF94_PARTIAL_CHARGES>
40
1 -0.18
10 -0.36
11 -0.56
12 -0.57
13 -0.57
14 -0.55
15 -0.49
16 0.08
17 0.12
18 0.96
19 0.18
2 -0.34
20 -0.15
21 -0.15
22 -0.15
23 0.62
24 0.09
25 0.69
26 0.54
27 0.19
28 0.19
29 -0.15
3 -0.34
30 -0.15
31 -0.15
32 1.3
33 0.15
34 0.15
35 0.15
37 0.37
38 0.37
39 0.15
4 -0.34
40 0.15
41 0.15
5 -0.19
6 -0.19
7 -0.34
8 -0.34
9 -0.34

> <PUBCHEM_EFFECTIVE_ROTOR_COUNT>
10

> <PUBCHEM_PHARMACOPHORE_FEATURES>
8
1 10 acceptor
1 11 acceptor
1 12 acceptor
1 13 acceptor
1 14 donor
1 15 donor
6 16 17 19 20 21 22 rings
6 24 27 28 29 30 31 rings

> <PUBCHEM_HEAVY_ATOM_COUNT>
32

> <PUBCHEM_ATOM_DEF_STEREO_COUNT>
0

> <PUBCHEM_ATOM_UDEF_STEREO_COUNT>
1

> <PUBCHEM_BOND_DEF_STEREO_COUNT>
0

> <PUBCHEM_BOND_UDEF_STEREO_COUNT>
0

> <PUBCHEM_ISOTOPIC_ATOM_COUNT>
0

> <PUBCHEM_COMPONENT_COUNT>
1

> <PUBCHEM_CACTVS_TAUTO_COUNT>
5

> <PUBCHEM_CONFORMER_ID>
00016D6500000001

> <PUBCHEM_MMFF94_ENERGY>
79.7472

> <PUBCHEM_FEATURE_SELFOVERLAP>
40.648

> <PUBCHEM_SHAPE_FINGERPRINT>
10 15 18261112993396148940
10076449 9 10159696894359866979
10299344 5 12540693712863129140
10429389 143 15123500433371512002
10533779 47 18335994072959390603
106641 1 18333453158033500075
10883706 142 17489869336752986335
11135609 187 13470416547986963661
11135926 11 18114453514129388743
11181472 205 16271941371896593242
11456790 92 18272091603777325417
11476731 38 9583516542336333732
11524674 6 16008749117044361866
11991303 11 13118008812030620552
12082328 90 10881391041869049163
12539745 222 15140678073873492077
13540713 5 17826241979919421391
13673619 4 16008746922379526484
14251764 18 18413385458470499406
14344974 204 17314808505673170963
14344974 52 14620503537825161121
14444916 359 17603303739298629498
1454969 45 8070028865286251864
150020 25 10663817486004096812
15183329 4 18409443692279126638
15247644 1 14923943440653647392
15301273 46 17313100839491545095
15352257 5 15140676973723684264
1577012 14 18338236084932582556
1754911 235 9727636098520569491
1818759 1 13912326772301813505
20105231 36 17676488320444820338
20281389 69 18410290315884633628
20554085 129 15554441882395640358
21033648 29 17845355804579163802
21095086 128 14273453661515766938
21130935 74 18339636854563031650
21150785 3 8430315740628145292
21267235 1 17894629236914291124
21403212 168 18409729543527058679
21591340 7 18272928341348798343
21756936 100 18131348614491725599
21781051 124 15502383322524162512
21792934 111 18260825990496231732
22224240 67 18335421275152055703
232437 2 11963395137864849665
23559900 14 18337940312357954468
23576562 1 12031202024023106817
246663 6 15936129659711379528
3009799 131 13470688144116997183
3178227 256 18259989275031934356
3383291 50 17676207987248785715
4073 2 18041839632164669450
4093350 32 17489588927287485214
4325135 7 8574711312986002042
5104073 3 18336262470324498354
59682541 35 18408046230185347747
6201320 215 16557911091822360057
9953998 17 18334859424968634267

> <PUBCHEM_SHAPE_MULTIPOLES>
568.79
30.73
2.07
1.11
2.1
0.81
0.17
-4.43
14.94
-1.09
-0.03
1.01
-0.22
-0.36

> <PUBCHEM_SHAPE_SELFOVERLAP>
1216.781

> <PUBCHEM_SHAPE_VOLUME>
312.8

> <PUBCHEM_COORDINATE_TYPE>
2
5
10

$$$$
