9576081
  -OEChem-07202400443D

 29 30  0     0  0  0  0  0  0999 V2000
   -4.5640   -1.0689   -0.6484 O   0  0  0  0  0  0  0  0  0  0  0  0
   -3.7006    0.7418    0.5721 O   0  0  0  0  0  0  0  0  0  0  0  0
   -1.1223    0.0854   -0.3409 O   0  0  0  0  0  0  0  0  0  0  0  0
    0.0834   -0.6136   -0.2014 N   0  0  0  0  0  0  0  0  0  0  0  0
    0.3224    2.6667   -0.3072 N   0  0  0  0  0  0  0  0  0  0  0  0
   -3.4928   -0.1212   -0.5543 C   0  0  0  0  0  0  0  0  0  0  0  0
   -5.5828   -0.5287    0.1911 C   0  0  0  0  0  0  0  0  0  0  0  0
   -4.8007    0.1633    1.2736 C   0  0  0  0  0  0  0  0  0  0  0  0
   -2.1775   -0.8610   -0.4029 C   0  0  0  0  0  0  0  0  0  0  0  0
    2.5289   -0.0979   -0.0001 C   0  0  0  0  0  0  0  0  0  0  0  0
    1.0953    0.1889   -0.1378 C   0  0  0  0  0  0  0  0  0  0  0  0
    3.4362    0.9517    0.0373 C   0  0  0  0  0  0  0  0  0  0  0  0
    2.9555   -1.4153    0.0920 C   0  0  0  0  0  0  0  0  0  0  0  0
    4.7976    0.6782    0.1698 C   0  0  0  0  0  0  0  0  0  0  0  0
    4.3169   -1.6887    0.2244 C   0  0  0  0  0  0  0  0  0  0  0  0
    5.2381   -0.6419    0.2634 C   0  0  0  0  0  0  0  0  0  0  0  0
    0.6664    1.5610   -0.2307 C   0  0  0  0  0  0  0  0  0  0  0  0
   -3.4841    0.5052   -1.4534 H   0  0  0  0  0  0  0  0  0  0  0  0
   -6.2374   -1.3194    0.5655 H   0  0  0  0  0  0  0  0  0  0  0  0
   -6.1709    0.1820   -0.3998 H   0  0  0  0  0  0  0  0  0  0  0  0
   -5.3723    0.9318    1.7995 H   0  0  0  0  0  0  0  0  0  0  0  0
   -4.4003   -0.5519    2.0002 H   0  0  0  0  0  0  0  0  0  0  0  0
   -2.0262   -1.5438   -1.2475 H   0  0  0  0  0  0  0  0  0  0  0  0
   -2.1829   -1.4555    0.5192 H   0  0  0  0  0  0  0  0  0  0  0  0
    3.1409    1.9936   -0.0317 H   0  0  0  0  0  0  0  0  0  0  0  0
    2.2523   -2.2430    0.0638 H   0  0  0  0  0  0  0  0  0  0  0  0
    5.5153    1.4929    0.2002 H   0  0  0  0  0  0  0  0  0  0  0  0
    4.6601   -2.7166    0.2974 H   0  0  0  0  0  0  0  0  0  0  0  0
    6.2980   -0.8548    0.3666 H   0  0  0  0  0  0  0  0  0  0  0  0
  1  6  1  0  0  0  0
  1  7  1  0  0  0  0
  2  6  1  0  0  0  0
  2  8  1  0  0  0  0
  3  4  1  0  0  0  0
  3  9  1  0  0  0  0
  4 11  2  0  0  0  0
  5 17  3  0  0  0  0
  6  9  1  0  0  0  0
  6 18  1  0  0  0  0
  7  8  1  0  0  0  0
  7 19  1  0  0  0  0
  7 20  1  0  0  0  0
  8 21  1  0  0  0  0
  8 22  1  0  0  0  0
  9 23  1  0  0  0  0
  9 24  1  0  0  0  0
 10 11  1  0  0  0  0
 10 12  2  0  0  0  0
 10 13  1  0  0  0  0
 11 17  1  0  0  0  0
 12 14  1  0  0  0  0
 12 25  1  0  0  0  0
 13 15  2  0  0  0  0
 13 26  1  0  0  0  0
 14 16  2  0  0  0  0
 14 27  1  0  0  0  0
 15 16  1  0  0  0  0
 15 28  1  0  0  0  0
 16 29  1  0  0  0  0
M  END
> <PUBCHEM_COMPOUND_CID>
9576081

> <PUBCHEM_CONFORMER_RMSD>
0.6

> <PUBCHEM_CONFORMER_DIVERSEORDER>
1
35
34
27
17
22
36
16
9
40
6
30
2
29
37
24
25
11
21
10
28
8
18
13
32
39
19
12
20
3
38
31
7
26
33
5
4
23
15
14

> <PUBCHEM_MMFF94_PARTIAL_CHARGES>
22
1 -0.56
10 0.09
11 0.47
12 -0.15
13 -0.15
14 -0.15
15 -0.15
16 -0.15
17 0.45
2 -0.56
25 0.15
26 0.15
27 0.15
28 0.15
29 0.15
3 -0.22
4 -0.51
5 -0.56
6 0.56
7 0.28
8 0.28
9 0.28

> <PUBCHEM_EFFECTIVE_ROTOR_COUNT>
5

> <PUBCHEM_PHARMACOPHORE_FEATURES>
6
1 1 acceptor
1 2 acceptor
1 4 acceptor
1 5 acceptor
5 1 2 6 7 8 rings
6 10 12 13 14 15 16 rings

> <PUBCHEM_HEAVY_ATOM_COUNT>
17

> <PUBCHEM_ATOM_DEF_STEREO_COUNT>
0

> <PUBCHEM_ATOM_UDEF_STEREO_COUNT>
0

> <PUBCHEM_BOND_DEF_STEREO_COUNT>
1

> <PUBCHEM_BOND_UDEF_STEREO_COUNT>
0

> <PUBCHEM_ISOTOPIC_ATOM_COUNT>
0

> <PUBCHEM_COMPONENT_COUNT>
1

> <PUBCHEM_CACTVS_TAUTO_COUNT>
1

> <PUBCHEM_CONFORMER_ID>
00921E9100000001

> <PUBCHEM_MMFF94_ENERGY>
48.5335

> <PUBCHEM_FEATURE_SELFOVERLAP>
30.489

> <PUBCHEM_SHAPE_FINGERPRINT>
10688039 33 18040997319287828525
10912923 1 18059855086370806219
11287383 113 15864076498317019654
12107183 9 17552649049511922291
12236239 1 18060138747454118115
12596602 18 17632576075808151059
13167823 11 18272929444649211991
13533116 47 14189306915323394038
13675066 3 18187082857991009181
13862211 1 18335696135372858298
14123238 8 18343019999547268559
1420 363 17385446518228964235
14252887 29 18341335509300551054
14341114 176 18410581703793322627
15048467 5 17561361812063657328
15196674 1 18410291376324804733
15885798 251 18408041788624966236
17834072 33 18343299301085904646
17834076 25 16272209690987588295
17844677 252 17167865253024576709
1813 80 18114192895106900100
18785283 64 17751928166320217484
19489759 90 15985104107152905195
20645477 70 18409728426936119702
21267235 1 18410016503519832614
21641784 216 17822870692611908236
23402539 116 18201432571850737917
42 15 18412546504980575079
4214541 1 18412543189339714509
465052 167 18341615906414751886
4990 188 12757147957190008650
5104073 3 18412543176164598201
5374978 207 18409441484686963912
542803 24 17203330022111265291
57003041 33 10735880560357036595
7495541 125 14996290248798042326

> <PUBCHEM_SHAPE_MULTIPOLES>
322.28
12.98
1.68
0.79
7.46
0.71
-0.11
-3.61
-2.24
-1.17
0.12
0.67
-0.01
-0.46

> <PUBCHEM_SHAPE_SELFOVERLAP>
675.474

> <PUBCHEM_SHAPE_VOLUME>
180.4

> <PUBCHEM_COORDINATE_TYPE>
2
5
10

$$$$
