9576037
  -OEChem-07202400503D

 27 28  0     0  0  0  0  0  0999 V2000
   -1.3880    2.4360    0.1881 O   0  0  0  0  0  0  0  0  0  0  0  0
   -1.3917    0.1966   -0.3948 N   0  0  0  0  0  0  0  0  0  0  0  0
   -3.3150    1.2248    0.4272 N   0  0  0  0  0  0  0  0  0  0  0  0
   -3.9684    0.0387    0.5205 N   0  0  0  0  0  0  0  0  0  0  0  0
   -0.0683    0.2051   -0.6887 N   0  0  0  0  0  0  0  0  0  0  0  0
    4.1095    0.1093   -1.1651 N   0  0  0  0  0  0  0  0  0  0  0  0
   -2.1769   -0.9036   -0.8834 C   0  0  0  0  0  0  0  0  0  0  0  0
   -3.4147   -0.9925   -0.0361 C   0  0  0  0  0  0  0  0  0  0  0  0
   -1.9829    1.3632    0.0646 C   0  0  0  0  0  0  0  0  0  0  0  0
   -4.0974   -2.3292    0.0693 C   0  0  0  0  0  0  0  0  0  0  0  0
    0.6867   -0.1042    0.3147 C   0  0  0  0  0  0  0  0  0  0  0  0
    2.1553   -0.1516    0.2023 C   0  0  0  0  0  0  0  0  0  0  0  0
    2.9263   -0.4853    1.2965 C   0  0  0  0  0  0  0  0  0  0  0  0
    2.7688    0.1355   -0.9939 C   0  0  0  0  0  0  0  0  0  0  0  0
    4.3095   -0.5228    1.1597 C   0  0  0  0  0  0  0  0  0  0  0  0
    4.8469   -0.2200   -0.0809 C   0  0  0  0  0  0  0  0  0  0  0  0
   -1.6026   -1.8321   -0.8131 H   0  0  0  0  0  0  0  0  0  0  0  0
   -2.4634   -0.7123   -1.9220 H   0  0  0  0  0  0  0  0  0  0  0  0
   -4.4581   -2.6273   -0.9188 H   0  0  0  0  0  0  0  0  0  0  0  0
   -4.9430   -2.2780    0.7605 H   0  0  0  0  0  0  0  0  0  0  0  0
   -3.3847   -3.0745    0.4323 H   0  0  0  0  0  0  0  0  0  0  0  0
   -3.8274    2.0177    0.7999 H   0  0  0  0  0  0  0  0  0  0  0  0
    0.2572   -0.3490    1.3045 H   0  0  0  0  0  0  0  0  0  0  0  0
    2.4764   -0.7182    2.2572 H   0  0  0  0  0  0  0  0  0  0  0  0
    2.2154    0.4039   -1.8877 H   0  0  0  0  0  0  0  0  0  0  0  0
    4.9468   -0.7810    1.9977 H   0  0  0  0  0  0  0  0  0  0  0  0
    5.9201   -0.2350   -0.2398 H   0  0  0  0  0  0  0  0  0  0  0  0
  1  9  2  0  0  0  0
  2  5  1  0  0  0  0
  2  7  1  0  0  0  0
  2  9  1  0  0  0  0
  3  4  1  0  0  0  0
  3  9  1  0  0  0  0
  3 22  1  0  0  0  0
  4  8  2  0  0  0  0
  5 11  2  0  0  0  0
  6 14  1  0  0  0  0
  6 16  2  0  0  0  0
  7  8  1  0  0  0  0
  7 17  1  0  0  0  0
  7 18  1  0  0  0  0
  8 10  1  0  0  0  0
 10 19  1  0  0  0  0
 10 20  1  0  0  0  0
 10 21  1  0  0  0  0
 11 12  1  0  0  0  0
 11 23  1  0  0  0  0
 12 13  1  0  0  0  0
 12 14  2  0  0  0  0
 13 15  2  0  0  0  0
 13 24  1  0  0  0  0
 14 25  1  0  0  0  0
 15 16  1  0  0  0  0
 15 26  1  0  0  0  0
 16 27  1  0  0  0  0
M  END
> <PUBCHEM_COMPOUND_CID>
9576037

> <PUBCHEM_CONFORMER_RMSD>
0.6

> <PUBCHEM_CONFORMER_DIVERSEORDER>
1
11
8
10
4
5
12
2
7
9
3
6

> <PUBCHEM_MMFF94_PARTIAL_CHARGES>
22
1 -0.57
10 0.06
11 0.3
12 0.09
13 -0.15
14 0.16
15 -0.15
16 0.16
2 -0.3
22 0.37
23 0.06
24 0.15
25 0.15
26 0.15
27 0.15
3 -0.37
4 -0.51
5 -0.51
6 -0.62
7 0.36
8 0.33
9 0.69

> <PUBCHEM_EFFECTIVE_ROTOR_COUNT>
2.6

> <PUBCHEM_PHARMACOPHORE_FEATURES>
7
1 1 acceptor
1 3 donor
1 4 acceptor
1 5 acceptor
1 6 acceptor
6 2 3 4 7 8 9 rings
6 6 12 13 14 15 16 rings

> <PUBCHEM_HEAVY_ATOM_COUNT>
16

> <PUBCHEM_ATOM_DEF_STEREO_COUNT>
0

> <PUBCHEM_ATOM_UDEF_STEREO_COUNT>
0

> <PUBCHEM_BOND_DEF_STEREO_COUNT>
1

> <PUBCHEM_BOND_UDEF_STEREO_COUNT>
0

> <PUBCHEM_ISOTOPIC_ATOM_COUNT>
0

> <PUBCHEM_COMPONENT_COUNT>
1

> <PUBCHEM_CACTVS_TAUTO_COUNT>
2

> <PUBCHEM_CONFORMER_ID>
00921E6500000001

> <PUBCHEM_MMFF94_ENERGY>
58.6064

> <PUBCHEM_FEATURE_SELFOVERLAP>
35.528

> <PUBCHEM_SHAPE_FINGERPRINT>
10912923 1 18186240632543010208
11045515 52 17022897973713059877
11046707 91 18335979852596609103
11552529 35 14835546102693366751
11578080 2 17896856919975725501
11615757 297 17530965778574625172
12236239 1 17967535666149028021
13103583 49 18047223949069320851
13167823 11 18186801357598163074
13296908 3 17203322300034211222
13675066 3 17346880065568747534
14004511 7 12175621780529228402
15653759 3 17918270943965424336
17834072 33 18113903775589431948
18222031 100 18129375068017919727
18915474 69 18040434425406085578
19050596 39 18260829280572568224
19422 9 18187081724473135802
200 152 17022617576514351869
20279233 1 17132110230205960710
20281475 54 18259978258678456914
20645477 70 15068614955890462394
21065201 7 18271807870090544582
21650355 55 18412823608081505089
22646028 1 17894908533878456146
22646028 28 17967810544156426202
2297311 6 18201731651613590788
2306618 200 17968364655272998037
23402539 116 18333726918732079910
23402655 69 16950556658477822214
23557571 272 18059586736577054933
23559900 14 18129107727736265454
238078 22 18116724091196719899
2838139 119 14116971093773653411
474 4 17460324480421376428
573450 72 18334006160183274506
602551 16 18272367624509683094
6049 1 17632572743235185072
633830 44 13038905568887985544

> <PUBCHEM_SHAPE_MULTIPOLES>
298.5
9.98
1.62
1.05
3.76
0.26
0
-3.15
0.76
-2.57
0.16
0.94
-0.1
-0.62

> <PUBCHEM_SHAPE_SELFOVERLAP>
630.46

> <PUBCHEM_SHAPE_VOLUME>
166

> <PUBCHEM_COORDINATE_TYPE>
2
5
10

$$$$
