9738
  -OEChem-07202406263D

 27 26  0     0  0  0  0  0  0999 V2000
    0.0006    0.0302   -0.3809 P   0  0  0  0  0  0  0  0  0  0  0  0
    0.0017    1.5948   -0.1673 F   0  0  0  0  0  0  0  0  0  0  0  0
    0.0002   -0.2313   -1.8649 O   0  0  0  0  0  0  0  0  0  0  0  0
   -1.3321   -0.4717    0.4664 N   0  0  0  0  0  0  0  0  0  0  0  0
    1.3326   -0.4738    0.4664 N   0  0  0  0  0  0  0  0  0  0  0  0
   -2.6527   -0.1597   -0.0576 C   0  0  0  0  0  0  0  0  0  0  0  0
    2.6536   -0.1638   -0.0577 C   0  0  0  0  0  0  0  0  0  0  0  0
   -3.1231    1.1946    0.4655 C   0  0  0  0  0  0  0  0  0  0  0  0
   -3.6278   -1.2662    0.3318 C   0  0  0  0  0  0  0  0  0  0  0  0
    3.6479   -1.2524    0.3362 C   0  0  0  0  0  0  0  0  0  0  0  0
    3.0991    1.1993    0.4622 C   0  0  0  0  0  0  0  0  0  0  0  0
   -2.6188   -0.1222   -1.1526 H   0  0  0  0  0  0  0  0  0  0  0  0
    2.6206   -0.1309   -1.1529 H   0  0  0  0  0  0  0  0  0  0  0  0
   -1.3191   -0.3519    1.4786 H   0  0  0  0  0  0  0  0  0  0  0  0
    1.3196   -0.3568    1.4789 H   0  0  0  0  0  0  0  0  0  0  0  0
   -4.1198    1.4315    0.0778 H   0  0  0  0  0  0  0  0  0  0  0  0
   -3.1792    1.2075    1.5599 H   0  0  0  0  0  0  0  0  0  0  0  0
   -2.4488    1.9979    0.1513 H   0  0  0  0  0  0  0  0  0  0  0  0
   -3.2991   -2.2349   -0.0609 H   0  0  0  0  0  0  0  0  0  0  0  0
   -4.6246   -1.0641   -0.0750 H   0  0  0  0  0  0  0  0  0  0  0  0
   -3.7218   -1.3565    1.4200 H   0  0  0  0  0  0  0  0  0  0  0  0
    4.6408   -1.0363   -0.0728 H   0  0  0  0  0  0  0  0  0  0  0  0
    3.7435   -1.3352    1.4247 H   0  0  0  0  0  0  0  0  0  0  0  0
    3.3332   -2.2279   -0.0508 H   0  0  0  0  0  0  0  0  0  0  0  0
    2.4188    1.9932    0.1374 H   0  0  0  0  0  0  0  0  0  0  0  0
    4.0961    1.4479    0.0820 H   0  0  0  0  0  0  0  0  0  0  0  0
    3.1465    1.2195    1.5570 H   0  0  0  0  0  0  0  0  0  0  0  0
  1  2  1  0  0  0  0
  1  3  2  0  0  0  0
  1  4  1  0  0  0  0
  1  5  1  0  0  0  0
  4  6  1  0  0  0  0
  4 14  1  0  0  0  0
  5  7  1  0  0  0  0
  5 15  1  0  0  0  0
  6  8  1  0  0  0  0
  6  9  1  0  0  0  0
  6 12  1  0  0  0  0
  7 10  1  0  0  0  0
  7 11  1  0  0  0  0
  7 13  1  0  0  0  0
  8 16  1  0  0  0  0
  8 17  1  0  0  0  0
  8 18  1  0  0  0  0
  9 19  1  0  0  0  0
  9 20  1  0  0  0  0
  9 21  1  0  0  0  0
 10 22  1  0  0  0  0
 10 23  1  0  0  0  0
 10 24  1  0  0  0  0
 11 25  1  0  0  0  0
 11 26  1  0  0  0  0
 11 27  1  0  0  0  0
M  END
> <PUBCHEM_COMPOUND_CID>
9738

> <PUBCHEM_CONFORMER_RMSD>
0.6

> <PUBCHEM_CONFORMER_DIVERSEORDER>
1
7
5
4
6
9
10
8
3
2

> <PUBCHEM_MMFF94_PARTIAL_CHARGES>
9
1 1.56
14 0.36
15 0.36
2 -0.33
3 -0.7
4 -0.9
5 -0.9
6 0.27
7 0.27

> <PUBCHEM_EFFECTIVE_ROTOR_COUNT>
4

> <PUBCHEM_PHARMACOPHORE_FEATURES>
3
1 3 acceptor
3 6 8 9 hydrophobe
3 7 10 11 hydrophobe

> <PUBCHEM_HEAVY_ATOM_COUNT>
11

> <PUBCHEM_ATOM_DEF_STEREO_COUNT>
0

> <PUBCHEM_ATOM_UDEF_STEREO_COUNT>
0

> <PUBCHEM_BOND_DEF_STEREO_COUNT>
0

> <PUBCHEM_BOND_UDEF_STEREO_COUNT>
0

> <PUBCHEM_ISOTOPIC_ATOM_COUNT>
0

> <PUBCHEM_COMPONENT_COUNT>
1

> <PUBCHEM_CACTVS_TAUTO_COUNT>
2

> <PUBCHEM_CONFORMER_ID>
0000260A00000001

> <PUBCHEM_MMFF94_ENERGY>
-8.6836

> <PUBCHEM_FEATURE_SELFOVERLAP>
15.223

> <PUBCHEM_SHAPE_FINGERPRINT>
10219947 1 17917997191302975589
11062470 55 16877942745588839063
124424 183 18342735174627896905
12932764 1 18410017619393483095
13296908 3 18408323289191924795
14325111 11 18412544318583674218
177051 138 18408605872254568402
17834069 15 18410856529786313977
18175812 5 18272369750127630397
190213 19 18261107486884013643
19422 9 18409732858914536114
20281407 28 16732977626434823323
20711985 327 17313390032092015471
21119208 17 9295021162502404715
21293036 1 10881693394354399982
22485316 2 18260261941115298954
23402539 116 18201710727239942837
3248919 1 17060345097470717290
75552 356 18411703166830117393

> <PUBCHEM_SHAPE_MULTIPOLES>
207.12
6.81
1.4
0.95
0.01
0.24
-0.43
-1.18
1.66
-0.01
0.2
0
-0.06
0

> <PUBCHEM_SHAPE_SELFOVERLAP>
363.575

> <PUBCHEM_SHAPE_VOLUME>
137.5

> <PUBCHEM_COORDINATE_TYPE>
2
5
10

$$$$
